(6HGV) [A] G3Q602|ligand_6hgv|sdf|1|dock3
  -GOLD-  10182016443D 1   1.00000     0.00000

 60 61  0  0  0  0  0  0  0  0  2 V2000
   -7.8067  -27.4950  -34.5757 O   0  0  0  0  0  0  0  0  0  0  0  0
   -8.9966  -27.0145  -35.0699 C   0  0  0  0  0  0  0  0  0  0  0  0
   -9.5214  -25.9592  -34.3885 C   0  0  0  0  0  0  0  0  0  0  0  0
  -10.7094  -25.4605  -34.7938 C   0  0  0  0  0  0  0  0  0  0  0  0
  -11.3234  -26.0207  -35.8693 C   0  0  0  0  0  0  0  0  0  0  0  0
  -12.5863  -25.4517  -36.1982 N   0  0  0  0  0  0  0  0  0  0  0  0
  -13.6092  -25.8024  -37.1422 C   0  0  0  0  0  0  0  0  0  0  0  0
  -13.6301  -26.7639  -37.7749 O   0  0  0  0  0  0  0  0  0  0  0  0
  -14.7264  -24.8706  -37.0816 N   0  0  0  0  0  0  0  0  0  0  0  0
  -15.9731  -24.8859  -37.8705 C   0  0  0  0  0  0  0  0  0  0  0  0
  -16.2647  -23.6355  -38.6100 C   0  0  0  0  0  0  0  0  0  0  0  0
  -17.6110  -23.6890  -39.3433 C   0  0  0  0  0  0  0  0  0  0  0  0
  -18.7974  -23.9787  -38.4766 C   0  0  0  0  0  0  0  0  0  0  0  0
  -18.4093  -25.1595  -37.6471 C   0  0  0  0  0  0  0  0  0  0  0  0
  -17.1171  -24.9143  -36.9347 C   0  0  0  0  0  0  0  0  0  0  0  0
  -16.9761  -25.6824  -36.2327 H   0  0  0  0  0  0  0  0  0  0  0  0
  -17.1845  -23.9926  -36.4362 H   0  0  0  0  0  0  0  0  0  0  0  0
  -19.1677  -25.3403  -36.9439 H   0  0  0  0  0  0  0  0  0  0  0  0
  -18.3091  -25.9941  -38.2763 H   0  0  0  0  0  0  0  0  0  0  0  0
  -19.6287  -24.1923  -39.0813 H   0  0  0  0  0  0  0  0  0  0  0  0
  -19.0059  -23.1420  -37.8776 H   0  0  0  0  0  0  0  0  0  0  0  0
  -17.7958  -22.7635  -39.8037 H   0  0  0  0  0  0  0  0  0  0  0  0
  -17.5824  -24.4434  -40.0731 H   0  0  0  0  0  0  0  0  0  0  0  0
  -15.5135  -23.4679  -39.3241 H   0  0  0  0  0  0  0  0  0  0  0  0
  -16.2943  -22.8298  -37.9373 H   0  0  0  0  0  0  0  0  0  0  0  0
  -15.9251  -25.6529  -38.5860 H   0  0  0  0  0  0  0  0  0  0  0  0
  -14.7018  -24.0941  -36.4362 H   0  0  0  0  0  0  0  0  0  0  0  0
  -12.9096  -24.6260  -35.7146 H   0  0  0  0  0  0  0  0  0  0  0  0
  -10.8385  -27.1102  -36.5426 C   0  0  0  0  0  0  0  0  0  0  0  0
   -9.6322  -27.6143  -36.1443 C   0  0  0  0  0  0  0  0  0  0  0  0
   -9.1862  -28.4326  -36.6281 H   0  0  0  0  0  0  0  0  0  0  0  0
  -11.3899  -27.5271  -37.3330 H   0  0  0  0  0  0  0  0  0  0  0  0
  -11.1591  -24.6543  -34.2934 H   0  0  0  0  0  0  0  0  0  0  0  0
   -9.0042  -25.5532  -33.5698 H   0  0  0  0  0  0  0  0  0  0  0  0
   -7.8389  -28.8475  -34.8406 C   0  0  0  0  0  0  0  0  0  0  0  0
   -6.9340  -29.6321  -33.9118 C   0  0  0  0  0  0  0  0  0  0  0  0
   -5.8003  -28.8547  -33.7399 O   0  0  0  0  0  0  0  0  0  0  0  0
   -5.3325  -28.7243  -34.6481 H   0  0  0  0  0  0  0  0  0  0  0  0
   -6.5376  -30.9881  -34.4896 C   0  0  0  0  0  0  0  0  0  0  0  0
   -5.5175  -31.6555  -33.6983 N   0  3  0  0  0  0  0  0  0  0  0  0
   -5.0718  -32.9248  -34.2470 C   0  0  0  0  0  0  0  0  0  0  0  0
   -4.5795  -32.7892  -35.6692 C   0  0  0  0  0  0  0  0  0  0  0  0
   -3.9552  -31.9483  -35.7448 H   0  0  0  0  0  0  0  0  0  0  0  0
   -5.4001  -32.6750  -36.3142 H   0  0  0  0  0  0  0  0  0  0  0  0
   -4.0412  -33.6500  -35.9368 H   0  0  0  0  0  0  0  0  0  0  0  0
   -6.2228  -33.9337  -34.2687 C   0  0  0  0  0  0  0  0  0  0  0  0
   -6.9187  -33.6550  -35.0041 H   0  0  0  0  0  0  0  0  0  0  0  0
   -5.8465  -34.8893  -34.4872 H   0  0  0  0  0  0  0  0  0  0  0  0
   -6.6928  -33.9488  -33.3299 H   0  0  0  0  0  0  0  0  0  0  0  0
   -3.9069  -33.4082  -33.4010 C   0  0  0  0  0  0  0  0  0  0  0  0
   -4.2027  -33.4596  -32.3948 H   0  0  0  0  0  0  0  0  0  0  0  0
   -3.1038  -32.7385  -33.4959 H   0  0  0  0  0  0  0  0  0  0  0  0
   -3.6089  -34.3606  -33.7273 H   0  0  0  0  0  0  0  0  0  0  0  0
   -5.9071  -31.8047  -32.7785 H   0  0  0  0  0  0  0  0  0  0  0  0
   -4.7328  -31.0229  -33.6331 H   0  0  0  0  0  0  0  0  0  0  0  0
   -7.3993  -31.5871  -34.5269 H   0  0  0  0  0  0  0  0  0  0  0  0
   -6.1781  -30.8310  -35.4635 H   0  0  0  0  0  0  0  0  0  0  0  0
   -7.3924  -29.7931  -32.9810 H   0  0  0  0  0  0  0  0  0  0  0  0
   -8.8190  -29.2044  -34.7206 H   0  0  0  0  0  0  0  0  0  0  0  0
   -7.5224  -29.0185  -35.8270 H   0  0  0  0  0  0  0  0  0  0  0  0
  1  2  1  0  0  0  0
  1 35  1  0  0  0  0
  2  3  2  0  0  0  0
  2 30  1  0  0  0  0
  3  4  1  0  0  0  0
  3 34  1  0  0  0  0
  4  5  2  0  0  0  0
  4 33  1  0  0  0  0
  5  6  1  0  0  0  0
  5 29  1  0  0  0  0
  6  7  1  0  0  0  0
  6 28  1  0  0  0  0
  7  8  2  0  0  0  0
  7  9  1  0  0  0  0
  9 10  1  0  0  0  0
  9 27  1  0  0  0  0
 10 11  1  0  0  0  0
 10 15  1  0  0  0  0
 10 26  1  0  0  0  0
 11 12  1  0  0  0  0
 11 24  1  0  0  0  0
 11 25  1  0  0  0  0
 12 13  1  0  0  0  0
 12 22  1  0  0  0  0
 12 23  1  0  0  0  0
 13 14  1  0  0  0  0
 13 20  1  0  0  0  0
 13 21  1  0  0  0  0
 14 15  1  0  0  0  0
 14 18  1  0  0  0  0
 14 19  1  0  0  0  0
 15 16  1  0  0  0  0
 15 17  1  0  0  0  0
 29 30  2  0  0  0  0
 29 32  1  0  0  0  0
 30 31  1  0  0  0  0
 35 36  1  0  0  0  0
 35 59  1  0  0  0  0
 35 60  1  0  0  0  0
 36 37  1  0  0  0  0
 36 39  1  0  0  0  0
 36 58  1  0  0  0  0
 37 38  1  0  0  0  0
 39 40  1  0  0  0  0
 39 56  1  0  0  0  0
 39 57  1  0  0  0  0
 40 41  1  0  0  0  0
 40 54  1  0  0  0  0
 40 55  1  0  0  0  0
 41 42  1  0  0  0  0
 41 46  1  0  0  0  0
 41 50  1  0  0  0  0
 42 43  1  0  0  0  0
 42 44  1  0  0  0  0
 42 45  1  0  0  0  0
 46 47  1  0  0  0  0
 46 48  1  0  0  0  0
 46 49  1  0  0  0  0
 50 51  1  0  0  0  0
 50 52  1  0  0  0  0
 50 53  1  0  0  0  0
M  CHG  1  40   1
M  END
> <CanonicalPdbName>
6HGV-G3Q_602_A

> <Gold.Version>
5.2

> <Gold.Id.Protein>
6HGV|6HGV_protein|mol2

> <Gold.Goldscore.Fitness>
86.8066

> <Gold.Goldscore.Internal.Vdw>
-35.8588

> <Gold.Goldscore.Internal.Torsion>
-3.9449

> <Gold.Goldscore.External.Vdw>
57.7637

> <Gold.Goldscore.Internal.HBond>
0.0000

> <Gold.Goldscore.External.HBond>
7.9426

> <Gold.Goldscore.Internal.Correction>
-39.2426

> <Gold.Goldscore.Hbonds>
donor molecule, donor type, donor heavy atom, donor atom, acceptor molecule, acceptor atom, score
      L1  H     6    28       P1   853  0.64
      L1  H     9    27       P1   853  0.68

> <Gold.Goldscore.Internal.Vdw.Weighted>
-35.8588

> <Gold.Goldscore.Internal.Torsion.Weighted>
-3.9449

> <Gold.Goldscore.External.Vdw.Weighted>
79.4251

> <Gold.Goldscore.Internal.HBond.Weighted>
0.0000

> <Gold.Goldscore.External.HBond.Weighted>
7.9426

> <Gold.Goldscore.Internal.Correction.Weighted>
-39.2426

> <Gold.Protein.RotatedTorsions>
[ 3781 1176 1175 1172 ] final -117.09 input   60.00 | X-H torsion
[ 3847 1247 1246 1244 ] final  -49.16 input   60.00 | X-H torsion
[ 4507 1931 1930 1928 ] final   98.73 input   60.00 | X-H torsion
[ 3677 1070 1069 1066 ] final -102.84 input   60.00 | X-H torsion
[ 3525  925  924  922 ] final   19.65 input   59.99 | X-H torsion
[ 4531 1957 1955 1953 ] final  160.69 input   60.00 | X-H torsion

> <Gold.Protein.ActiveResidues>
 PHE267  PRO268  MET310  ASP335  TRP336  MET339  TYR343  THR360  PRO361  ILE363 
 PRO371  SER374  ILE375  ASN378  PHE381  TYR383  GLN384  PHE387  LEU408  LEU417 
 MET419  LEU428  TYR466  MET469  ASN472  ASP496  VAL498  LEU499  MET503  HIS524 
 TRP525 

> <Gold.Protein.RotatedAtoms>
   -3.3824  -29.6189  -30.7008 H   0  0  0  0  0  0  0  0  0  0  0  0  # atno 3525 bound_to 925 
  -11.6940  -23.7342  -31.4256 H   0  0  0  0  0  0  0  0  0  0  0  0  # atno 3677 bound_to 1070
   -9.4966  -36.3224  -33.7904 H   0  0  0  0  0  0  0  0  0  0  0  0  # atno 3781 bound_to 1176
  -16.0649  -28.0348  -37.1769 H   0  0  0  0  0  0  0  0  0  0  0  0  # atno 3847 bound_to 1247
  -12.4393  -24.1498  -39.0869 H   0  0  0  0  0  0  0  0  0  0  0  0  # atno 4507 bound_to 1931
   -1.7451  -33.9553  -36.9255 H   0  0  0  0  0  0  0  0  0  0  0  0  # atno 4531 bound_to 1957
   -9.8008  -37.0546  -32.3693 LP  0  0  0  0  0  0  0  0  0  0  0  0  # atno 5205 bound_to 1176
  -10.8170  -37.2600  -33.6309 LP  0  0  0  0  0  0  0  0  0  0  0  0  # atno 5206 bound_to 1176
  -14.8080  -27.3331  -37.9359 LP  0  0  0  0  0  0  0  0  0  0  0  0  # atno 5215 bound_to 1247
  -14.6853  -28.8695  -37.3963 LP  0  0  0  0  0  0  0  0  0  0  0  0  # atno 5216 bound_to 1247
  -13.4667  -25.3830  -39.3543 LP  0  0  0  0  0  0  0  0  0  0  0  0  # atno 5217 bound_to 1931
  -13.2932  -24.2043  -40.4710 LP  0  0  0  0  0  0  0  0  0  0  0  0  # atno 5218 bound_to 1931
  -11.3642  -22.2840  -30.7649 LP  0  0  0  0  0  0  0  0  0  0  0  0  # atno 5224 bound_to 1070
  -12.7976  -23.0102  -30.4737 LP  0  0  0  0  0  0  0  0  0  0  0  0  # atno 5225 bound_to 1070

$$$$
(6HGV) [A] G3Q602|ligand_6hgv|sdf|1|dock4
  -GOLD-  10182016443D 1   1.00000     0.00000

 60 61  0  0  0  0  0  0  0  0  2 V2000
   -7.6988  -27.3620  -34.5875 O   0  0  0  0  0  0  0  0  0  0  0  0
   -8.9079  -26.9185  -35.0694 C   0  0  0  0  0  0  0  0  0  0  0  0
   -9.3895  -25.7927  -34.4742 C   0  0  0  0  0  0  0  0  0  0  0  0
  -10.5921  -25.3221  -34.8697 C   0  0  0  0  0  0  0  0  0  0  0  0
  -11.2636  -25.9803  -35.8512 C   0  0  0  0  0  0  0  0  0  0  0  0
  -12.5367  -25.4310  -36.1742 N   0  0  0  0  0  0  0  0  0  0  0  0
  -13.5740  -25.8185  -37.0877 C   0  0  0  0  0  0  0  0  0  0  0  0
  -13.5990  -26.7995  -37.6895 O   0  0  0  0  0  0  0  0  0  0  0  0
  -14.6970  -24.8933  -37.0355 N   0  0  0  0  0  0  0  0  0  0  0  0
  -15.9578  -24.9423  -37.8003 C   0  0  0  0  0  0  0  0  0  0  0  0
  -16.3257  -23.6824  -38.4878 C   0  0  0  0  0  0  0  0  0  0  0  0
  -17.6829  -23.7764  -39.1965 C   0  0  0  0  0  0  0  0  0  0  0  0
  -18.8352  -24.1553  -38.3183 C   0  0  0  0  0  0  0  0  0  0  0  0
  -18.3725  -25.3441  -37.5401 C   0  0  0  0  0  0  0  0  0  0  0  0
  -17.0792  -25.0606  -36.8442 C   0  0  0  0  0  0  0  0  0  0  0  0
  -16.8860  -25.8452  -36.1737 H   0  0  0  0  0  0  0  0  0  0  0  0
  -17.1810  -24.1617  -36.3113 H   0  0  0  0  0  0  0  0  0  0  0  0
  -19.1063  -25.5872  -36.8295 H   0  0  0  0  0  0  0  0  0  0  0  0
  -18.2450  -26.1498  -38.2012 H   0  0  0  0  0  0  0  0  0  0  0  0
  -19.6677  -24.3882  -38.9142 H   0  0  0  0  0  0  0  0  0  0  0  0
  -19.0717  -23.3517  -37.6852 H   0  0  0  0  0  0  0  0  0  0  0  0
  -17.9223  -22.8455  -39.6191 H   0  0  0  0  0  0  0  0  0  0  0  0
  -17.6328  -24.5021  -39.9538 H   0  0  0  0  0  0  0  0  0  0  0  0
  -15.5987  -23.4525  -39.2097 H   0  0  0  0  0  0  0  0  0  0  0  0
  -16.3804  -22.9036  -37.7857 H   0  0  0  0  0  0  0  0  0  0  0  0
  -15.8875  -25.6800  -38.5441 H   0  0  0  0  0  0  0  0  0  0  0  0
  -14.6667  -24.0968  -36.4152 H   0  0  0  0  0  0  0  0  0  0  0  0
  -12.8575  -24.5929  -35.7108 H   0  0  0  0  0  0  0  0  0  0  0  0
  -10.8218  -27.1387  -36.4329 C   0  0  0  0  0  0  0  0  0  0  0  0
   -9.6013  -27.6157  -36.0447 C   0  0  0  0  0  0  0  0  0  0  0  0
   -9.1867  -28.4846  -36.4638 H   0  0  0  0  0  0  0  0  0  0  0  0
  -11.4154  -27.6264  -37.1487 H   0  0  0  0  0  0  0  0  0  0  0  0
  -11.0097  -24.4634  -34.4327 H   0  0  0  0  0  0  0  0  0  0  0  0
   -8.8287  -25.3126  -33.7275 H   0  0  0  0  0  0  0  0  0  0  0  0
   -7.7601  -28.7346  -34.6998 C   0  0  0  0  0  0  0  0  0  0  0  0
   -6.8124  -29.4280  -33.7414 C   0  0  0  0  0  0  0  0  0  0  0  0
   -5.7464  -28.5606  -33.5674 O   0  0  0  0  0  0  0  0  0  0  0  0
   -5.2948  -28.3849  -34.4763 H   0  0  0  0  0  0  0  0  0  0  0  0
   -6.3011  -30.7591  -34.2856 C   0  0  0  0  0  0  0  0  0  0  0  0
   -5.4177  -31.4407  -33.3542 N   0  3  0  0  0  0  0  0  0  0  0  0
   -4.6772  -32.5475  -33.9350 C   0  0  0  0  0  0  0  0  0  0  0  0
   -3.5758  -32.0754  -34.8554 C   0  0  0  0  0  0  0  0  0  0  0  0
   -2.9859  -32.8946  -35.1443 H   0  0  0  0  0  0  0  0  0  0  0  0
   -2.9777  -31.3730  -34.3540 H   0  0  0  0  0  0  0  0  0  0  0  0
   -3.9984  -31.6306  -35.7075 H   0  0  0  0  0  0  0  0  0  0  0  0
   -5.6047  -33.4346  -34.7693 C   0  0  0  0  0  0  0  0  0  0  0  0
   -6.4718  -33.6508  -34.2178 H   0  0  0  0  0  0  0  0  0  0  0  0
   -5.8681  -32.9321  -35.6529 H   0  0  0  0  0  0  0  0  0  0  0  0
   -5.1106  -34.3294  -35.0095 H   0  0  0  0  0  0  0  0  0  0  0  0
   -4.0282  -33.3147  -32.7963 C   0  0  0  0  0  0  0  0  0  0  0  0
   -3.4288  -32.6630  -32.2320 H   0  0  0  0  0  0  0  0  0  0  0  0
   -3.4334  -34.0861  -33.1883 H   0  0  0  0  0  0  0  0  0  0  0  0
   -4.7735  -33.7255  -32.1815 H   0  0  0  0  0  0  0  0  0  0  0  0
   -5.9924  -31.7809  -32.5966 H   0  0  0  0  0  0  0  0  0  0  0  0
   -4.7700  -30.7504  -33.0019 H   0  0  0  0  0  0  0  0  0  0  0  0
   -7.1337  -31.3666  -34.4867 H   0  0  0  0  0  0  0  0  0  0  0  0
   -5.7852  -30.5654  -35.1793 H   0  0  0  0  0  0  0  0  0  0  0  0
   -7.2728  -29.6071  -32.8149 H   0  0  0  0  0  0  0  0  0  0  0  0
   -8.7355  -29.0599  -34.4877 H   0  0  0  0  0  0  0  0  0  0  0  0
   -7.5015  -29.0177  -35.6774 H   0  0  0  0  0  0  0  0  0  0  0  0
  1  2  1  0  0  0  0
  1 35  1  0  0  0  0
  2  3  2  0  0  0  0
  2 30  1  0  0  0  0
  3  4  1  0  0  0  0
  3 34  1  0  0  0  0
  4  5  2  0  0  0  0
  4 33  1  0  0  0  0
  5  6  1  0  0  0  0
  5 29  1  0  0  0  0
  6  7  1  0  0  0  0
  6 28  1  0  0  0  0
  7  8  2  0  0  0  0
  7  9  1  0  0  0  0
  9 10  1  0  0  0  0
  9 27  1  0  0  0  0
 10 11  1  0  0  0  0
 10 15  1  0  0  0  0
 10 26  1  0  0  0  0
 11 12  1  0  0  0  0
 11 24  1  0  0  0  0
 11 25  1  0  0  0  0
 12 13  1  0  0  0  0
 12 22  1  0  0  0  0
 12 23  1  0  0  0  0
 13 14  1  0  0  0  0
 13 20  1  0  0  0  0
 13 21  1  0  0  0  0
 14 15  1  0  0  0  0
 14 18  1  0  0  0  0
 14 19  1  0  0  0  0
 15 16  1  0  0  0  0
 15 17  1  0  0  0  0
 29 30  2  0  0  0  0
 29 32  1  0  0  0  0
 30 31  1  0  0  0  0
 35 36  1  0  0  0  0
 35 59  1  0  0  0  0
 35 60  1  0  0  0  0
 36 37  1  0  0  0  0
 36 39  1  0  0  0  0
 36 58  1  0  0  0  0
 37 38  1  0  0  0  0
 39 40  1  0  0  0  0
 39 56  1  0  0  0  0
 39 57  1  0  0  0  0
 40 41  1  0  0  0  0
 40 54  1  0  0  0  0
 40 55  1  0  0  0  0
 41 42  1  0  0  0  0
 41 46  1  0  0  0  0
 41 50  1  0  0  0  0
 42 43  1  0  0  0  0
 42 44  1  0  0  0  0
 42 45  1  0  0  0  0
 46 47  1  0  0  0  0
 46 48  1  0  0  0  0
 46 49  1  0  0  0  0
 50 51  1  0  0  0  0
 50 52  1  0  0  0  0
 50 53  1  0  0  0  0
M  CHG  1  40   1
M  END
> <CanonicalPdbName>
6HGV-G3Q_602_A

> <Gold.Version>
5.2

> <Gold.Id.Protein>
6HGV|6HGV_protein|mol2

> <Gold.Goldscore.Fitness>
86.7326

> <Gold.Goldscore.Internal.Vdw>
-35.4289

> <Gold.Goldscore.Internal.Torsion>
-4.5157

> <Gold.Goldscore.External.Vdw>
58.0801

> <Gold.Goldscore.Internal.HBond>
0.0000

> <Gold.Goldscore.External.HBond>
7.9620

> <Gold.Goldscore.Internal.Correction>
-38.8550

> <Gold.Goldscore.Hbonds>
donor molecule, donor type, donor heavy atom, donor atom, acceptor molecule, acceptor atom, score
      L1  H     6    28       P1   853  0.62
      L1  H     9    27       P1   853  0.71

> <Gold.Goldscore.Internal.Vdw.Weighted>
-35.4289

> <Gold.Goldscore.Internal.Torsion.Weighted>
-4.5157

> <Gold.Goldscore.External.Vdw.Weighted>
79.8602

> <Gold.Goldscore.Internal.HBond.Weighted>
0.0000

> <Gold.Goldscore.External.HBond.Weighted>
7.9620

> <Gold.Goldscore.Internal.Correction.Weighted>
-38.8550

> <Gold.Protein.RotatedTorsions>
[ 3781 1176 1175 1172 ] final -136.22 input   60.00 | X-H torsion
[ 3847 1247 1246 1244 ] final  -44.16 input   60.00 | X-H torsion
[ 4507 1931 1930 1928 ] final   96.29 input   60.00 | X-H torsion
[ 3677 1070 1069 1066 ] final -117.35 input   60.00 | X-H torsion
[ 3525  925  924  922 ] final   25.06 input   59.99 | X-H torsion
[ 4531 1957 1955 1953 ] final  161.62 input   60.00 | X-H torsion

> <Gold.Protein.ActiveResidues>
 PHE267  PRO268  MET310  ASP335  TRP336  MET339  TYR343  THR360  PRO361  ILE363 
 PRO371  SER374  ILE375  ASN378  PHE381  TYR383  GLN384  PHE387  LEU408  LEU417 
 MET419  LEU428  TYR466  MET469  ASN472  ASP496  VAL498  LEU499  MET503  HIS524 
 TRP525 

> <Gold.Protein.RotatedAtoms>
   -3.3126  -29.6450  -30.7481 H   0  0  0  0  0  0  0  0  0  0  0  0  # atno 3525 bound_to 925 
  -11.4962  -23.6067  -31.4503 H   0  0  0  0  0  0  0  0  0  0  0  0  # atno 3677 bound_to 1070
   -9.3355  -36.3145  -33.5243 H   0  0  0  0  0  0  0  0  0  0  0  0  # atno 3781 bound_to 1176
  -16.0554  -28.1117  -37.1512 H   0  0  0  0  0  0  0  0  0  0  0  0  # atno 3847 bound_to 1247
  -12.4441  -24.1790  -39.0600 H   0  0  0  0  0  0  0  0  0  0  0  0  # atno 4507 bound_to 1931
   -1.7319  -33.9479  -36.9279 H   0  0  0  0  0  0  0  0  0  0  0  0  # atno 4531 bound_to 1957
  -10.0643  -37.2233  -32.3880 LP  0  0  0  0  0  0  0  0  0  0  0  0  # atno 5205 bound_to 1176
  -10.7159  -37.0992  -33.8802 LP  0  0  0  0  0  0  0  0  0  0  0  0  # atno 5206 bound_to 1176
  -14.8791  -27.2939  -37.9230 LP  0  0  0  0  0  0  0  0  0  0  0  0  # atno 5215 bound_to 1247
  -14.6237  -28.8313  -37.4351 LP  0  0  0  0  0  0  0  0  0  0  0  0  # atno 5216 bound_to 1247
  -13.4875  -25.3838  -39.3887 LP  0  0  0  0  0  0  0  0  0  0  0  0  # atno 5217 bound_to 1931
  -13.2676  -24.1742  -40.4635 LP  0  0  0  0  0  0  0  0  0  0  0  0  # atno 5218 bound_to 1931
  -11.5428  -22.2019  -30.6303 LP  0  0  0  0  0  0  0  0  0  0  0  0  # atno 5224 bound_to 1070
  -12.8182  -23.2207  -30.5835 LP  0  0  0  0  0  0  0  0  0  0  0  0  # atno 5225 bound_to 1070

$$$$
(6HGV) [A] G3Q602|ligand_6hgv|sdf|1|dock6
  -GOLD-  10182016453D 1   1.00000     0.00000

 60 61  0  0  0  0  0  0  0  0  2 V2000
   -7.6836  -27.3765  -34.6483 O   0  0  0  0  0  0  0  0  0  0  0  0
   -8.8949  -26.9281  -35.1200 C   0  0  0  0  0  0  0  0  0  0  0  0
   -9.3644  -25.7974  -34.5244 C   0  0  0  0  0  0  0  0  0  0  0  0
  -10.5683  -25.3217  -34.9098 C   0  0  0  0  0  0  0  0  0  0  0  0
  -11.2530  -25.9799  -35.8822 C   0  0  0  0  0  0  0  0  0  0  0  0
  -12.5262  -25.4247  -36.1948 N   0  0  0  0  0  0  0  0  0  0  0  0
  -13.5559  -25.7848  -37.1278 C   0  0  0  0  0  0  0  0  0  0  0  0
  -13.5730  -26.7449  -37.7628 O   0  0  0  0  0  0  0  0  0  0  0  0
  -14.6830  -24.8662  -37.0517 N   0  0  0  0  0  0  0  0  0  0  0  0
  -15.9386  -24.8940  -37.8260 C   0  0  0  0  0  0  0  0  0  0  0  0
  -16.2896  -23.6224  -38.5006 C   0  0  0  0  0  0  0  0  0  0  0  0
  -17.6425  -23.6949  -39.2202 C   0  0  0  0  0  0  0  0  0  0  0  0
  -18.8046  -24.0737  -38.3550 C   0  0  0  0  0  0  0  0  0  0  0  0
  -18.3587  -25.2762  -37.5883 C   0  0  0  0  0  0  0  0  0  0  0  0
  -17.0679  -25.0135  -36.8796 C   0  0  0  0  0  0  0  0  0  0  0  0
  -16.8870  -25.8081  -36.2175 H   0  0  0  0  0  0  0  0  0  0  0  0
  -17.1653  -24.1203  -36.3363 H   0  0  0  0  0  0  0  0  0  0  0  0
  -19.0999  -25.5211  -36.8860 H   0  0  0  0  0  0  0  0  0  0  0  0
  -18.2339  -26.0750  -38.2583 H   0  0  0  0  0  0  0  0  0  0  0  0
  -19.6348  -24.2914  -38.9598 H   0  0  0  0  0  0  0  0  0  0  0  0
  -19.0382  -23.2758  -37.7137 H   0  0  0  0  0  0  0  0  0  0  0  0
  -17.8701  -22.7567  -39.6330 H   0  0  0  0  0  0  0  0  0  0  0  0
  -17.5936  -24.4116  -39.9860 H   0  0  0  0  0  0  0  0  0  0  0  0
  -15.5553  -23.3904  -39.2144 H   0  0  0  0  0  0  0  0  0  0  0  0
  -16.3422  -22.8518  -37.7893 H   0  0  0  0  0  0  0  0  0  0  0  0
  -15.8697  -25.6232  -38.5784 H   0  0  0  0  0  0  0  0  0  0  0  0
  -14.6599  -24.0912  -36.4045 H   0  0  0  0  0  0  0  0  0  0  0  0
  -12.8534  -24.6041  -35.7053 H   0  0  0  0  0  0  0  0  0  0  0  0
  -10.8233  -27.1429  -36.4637 C   0  0  0  0  0  0  0  0  0  0  0  0
   -9.6017  -27.6252  -36.0857 C   0  0  0  0  0  0  0  0  0  0  0  0
   -9.1960  -28.4979  -36.5056 H   0  0  0  0  0  0  0  0  0  0  0  0
  -11.4266  -27.6299  -37.1719 H   0  0  0  0  0  0  0  0  0  0  0  0
  -10.9768  -24.4591  -34.4721 H   0  0  0  0  0  0  0  0  0  0  0  0
   -8.7937  -25.3177  -33.7850 H   0  0  0  0  0  0  0  0  0  0  0  0
   -7.7521  -28.7490  -34.7581 C   0  0  0  0  0  0  0  0  0  0  0  0
   -6.7939  -29.4452  -33.8125 C   0  0  0  0  0  0  0  0  0  0  0  0
   -5.7926  -28.5267  -33.5422 O   0  0  0  0  0  0  0  0  0  0  0  0
   -5.3061  -28.2820  -34.4164 H   0  0  0  0  0  0  0  0  0  0  0  0
   -6.1795  -30.7018  -34.4233 C   0  0  0  0  0  0  0  0  0  0  0  0
   -5.2078  -31.3318  -33.5451 N   0  3  0  0  0  0  0  0  0  0  0  0
   -4.7289  -32.6214  -34.0121 C   0  0  0  0  0  0  0  0  0  0  0  0
   -4.3789  -32.6008  -35.4819 C   0  0  0  0  0  0  0  0  0  0  0  0
   -5.2559  -32.4924  -36.0491 H   0  0  0  0  0  0  0  0  0  0  0  0
   -3.9034  -33.5004  -35.7412 H   0  0  0  0  0  0  0  0  0  0  0  0
   -3.7341  -31.7954  -35.6769 H   0  0  0  0  0  0  0  0  0  0  0  0
   -5.8058  -33.6933  -33.8261 C   0  0  0  0  0  0  0  0  0  0  0  0
   -6.1494  -33.6757  -32.8340 H   0  0  0  0  0  0  0  0  0  0  0  0
   -6.6068  -33.5014  -34.4774 H   0  0  0  0  0  0  0  0  0  0  0  0
   -5.4000  -34.6379  -34.0392 H   0  0  0  0  0  0  0  0  0  0  0  0
   -3.4615  -32.9481  -33.2419 C   0  0  0  0  0  0  0  0  0  0  0  0
   -2.7097  -32.2610  -33.4972 H   0  0  0  0  0  0  0  0  0  0  0  0
   -3.1450  -33.9193  -33.4846 H   0  0  0  0  0  0  0  0  0  0  0  0
   -3.6534  -32.8898  -32.2112 H   0  0  0  0  0  0  0  0  0  0  0  0
   -5.6516  -31.4435  -32.6447 H   0  0  0  0  0  0  0  0  0  0  0  0
   -4.4291  -30.6942  -33.4599 H   0  0  0  0  0  0  0  0  0  0  0  0
   -6.9585  -31.3765  -34.6246 H   0  0  0  0  0  0  0  0  0  0  0  0
   -5.7124  -30.4279  -35.3228 H   0  0  0  0  0  0  0  0  0  0  0  0
   -7.2721  -29.7152  -32.9175 H   0  0  0  0  0  0  0  0  0  0  0  0
   -8.7258  -29.0700  -34.5317 H   0  0  0  0  0  0  0  0  0  0  0  0
   -7.5087  -29.0342  -35.7388 H   0  0  0  0  0  0  0  0  0  0  0  0
  1  2  1  0  0  0  0
  1 35  1  0  0  0  0
  2  3  2  0  0  0  0
  2 30  1  0  0  0  0
  3  4  1  0  0  0  0
  3 34  1  0  0  0  0
  4  5  2  0  0  0  0
  4 33  1  0  0  0  0
  5  6  1  0  0  0  0
  5 29  1  0  0  0  0
  6  7  1  0  0  0  0
  6 28  1  0  0  0  0
  7  8  2  0  0  0  0
  7  9  1  0  0  0  0
  9 10  1  0  0  0  0
  9 27  1  0  0  0  0
 10 11  1  0  0  0  0
 10 15  1  0  0  0  0
 10 26  1  0  0  0  0
 11 12  1  0  0  0  0
 11 24  1  0  0  0  0
 11 25  1  0  0  0  0
 12 13  1  0  0  0  0
 12 22  1  0  0  0  0
 12 23  1  0  0  0  0
 13 14  1  0  0  0  0
 13 20  1  0  0  0  0
 13 21  1  0  0  0  0
 14 15  1  0  0  0  0
 14 18  1  0  0  0  0
 14 19  1  0  0  0  0
 15 16  1  0  0  0  0
 15 17  1  0  0  0  0
 29 30  2  0  0  0  0
 29 32  1  0  0  0  0
 30 31  1  0  0  0  0
 35 36  1  0  0  0  0
 35 59  1  0  0  0  0
 35 60  1  0  0  0  0
 36 37  1  0  0  0  0
 36 39  1  0  0  0  0
 36 58  1  0  0  0  0
 37 38  1  0  0  0  0
 39 40  1  0  0  0  0
 39 56  1  0  0  0  0
 39 57  1  0  0  0  0
 40 41  1  0  0  0  0
 40 54  1  0  0  0  0
 40 55  1  0  0  0  0
 41 42  1  0  0  0  0
 41 46  1  0  0  0  0
 41 50  1  0  0  0  0
 42 43  1  0  0  0  0
 42 44  1  0  0  0  0
 42 45  1  0  0  0  0
 46 47  1  0  0  0  0
 46 48  1  0  0  0  0
 46 49  1  0  0  0  0
 50 51  1  0  0  0  0
 50 52  1  0  0  0  0
 50 53  1  0  0  0  0
M  CHG  1  40   1
M  END
> <CanonicalPdbName>
6HGV-G3Q_602_A

> <Gold.Version>
5.2

> <Gold.Id.Protein>
6HGV|6HGV_protein|mol2

> <Gold.Goldscore.Fitness>
86.2753

> <Gold.Goldscore.Internal.Vdw>
-36.2417

> <Gold.Goldscore.Internal.Torsion>
-4.7686

> <Gold.Goldscore.External.Vdw>
58.7647

> <Gold.Goldscore.Internal.HBond>
0.0000

> <Gold.Goldscore.External.HBond>
8.1427

> <Gold.Goldscore.Internal.Correction>
-38.3413

> <Gold.Goldscore.Hbonds>
donor molecule, donor type, donor heavy atom, donor atom, acceptor molecule, acceptor atom, score
      P1  H  1247  3847       L1     8  0.14
      L1  H     6    28       P1   853  0.60
      L1  H     9    27       P1   853  0.71

> <Gold.Goldscore.Internal.Vdw.Weighted>
-36.2417

> <Gold.Goldscore.Internal.Torsion.Weighted>
-4.7686

> <Gold.Goldscore.External.Vdw.Weighted>
80.8014

> <Gold.Goldscore.Internal.HBond.Weighted>
0.0000

> <Gold.Goldscore.External.HBond.Weighted>
8.1427

> <Gold.Goldscore.Internal.Correction.Weighted>
-38.3413

> <Gold.Protein.RotatedTorsions>
[ 3781 1176 1175 1172 ] final  176.38 input   60.00 | X-H torsion
[ 3847 1247 1246 1244 ] final  148.92 input   60.00 | X-H torsion
[ 4507 1931 1930 1928 ] final  153.54 input   60.00 | X-H torsion
[ 3677 1070 1069 1066 ] final  -95.96 input   60.00 | X-H torsion
[ 3525  925  924  922 ] final   25.87 input   59.99 | X-H torsion
[ 4531 1957 1955 1953 ] final  -84.71 input   60.00 | X-H torsion

> <Gold.Protein.ActiveResidues>
 PHE267  PRO268  MET310  ASP335  TRP336  MET339  TYR343  THR360  PRO361  ILE363 
 PRO371  SER374  ILE375  ASN378  PHE381  TYR383  GLN384  PHE387  LEU408  LEU417 
 MET419  LEU428  TYR466  MET469  ASN472  ASP496  VAL498  LEU499  MET503  HIS524 
 TRP525 

> <Gold.Protein.RotatedAtoms>
   -3.3018  -29.6491  -30.7545 H   0  0  0  0  0  0  0  0  0  0  0  0  # atno 3525 bound_to 925 
  -11.7942  -23.7788  -31.4018 H   0  0  0  0  0  0  0  0  0  0  0  0  # atno 3677 bound_to 1070
   -9.2869  -36.5493  -32.8108 H   0  0  0  0  0  0  0  0  0  0  0  0  # atno 3781 bound_to 1176
  -14.3776  -27.8488  -37.9103 H   0  0  0  0  0  0  0  0  0  0  0  0  # atno 3847 bound_to 1247
  -12.6226  -23.7793  -39.8430 H   0  0  0  0  0  0  0  0  0  0  0  0  # atno 4507 bound_to 1931
   -1.6224  -32.3843  -36.9217 H   0  0  0  0  0  0  0  0  0  0  0  0  # atno 4531 bound_to 1957
  -10.6438  -37.4474  -32.8221 LP  0  0  0  0  0  0  0  0  0  0  0  0  # atno 5205 bound_to 1176
  -10.1853  -36.6387  -34.1646 LP  0  0  0  0  0  0  0  0  0  0  0  0  # atno 5206 bound_to 1176
  -15.3008  -28.9374  -37.1288 LP  0  0  0  0  0  0  0  0  0  0  0  0  # atno 5215 bound_to 1247
  -15.8917  -27.4526  -37.4648 LP  0  0  0  0  0  0  0  0  0  0  0  0  # atno 5216 bound_to 1247
  -12.8926  -25.0141  -38.8181 LP  0  0  0  0  0  0  0  0  0  0  0  0  # atno 5217 bound_to 1931
  -13.6827  -24.9463  -40.2456 LP  0  0  0  0  0  0  0  0  0  0  0  0  # atno 5218 bound_to 1931
  -11.2921  -22.3396  -30.8320 LP  0  0  0  0  0  0  0  0  0  0  0  0  # atno 5224 bound_to 1070
  -12.7688  -22.9097  -30.4307 LP  0  0  0  0  0  0  0  0  0  0  0  0  # atno 5225 bound_to 1070

$$$$
(6HGV) [A] G3Q602|ligand_6hgv|sdf|1|dock10
  -GOLD-  10182016463D 1   1.00000     0.00000

 60 61  0  0  0  0  0  0  0  0  2 V2000
   -7.7030  -27.3931  -34.6637 O   0  0  0  0  0  0  0  0  0  0  0  0
   -8.9064  -26.9433  -35.1538 C   0  0  0  0  0  0  0  0  0  0  0  0
   -9.4178  -25.8528  -34.5191 C   0  0  0  0  0  0  0  0  0  0  0  0
  -10.6171  -25.3798  -34.9216 C   0  0  0  0  0  0  0  0  0  0  0  0
  -11.2558  -26.0003  -35.9486 C   0  0  0  0  0  0  0  0  0  0  0  0
  -12.5285  -25.4530  -36.2768 N   0  0  0  0  0  0  0  0  0  0  0  0
  -13.5648  -25.8466  -37.1888 C   0  0  0  0  0  0  0  0  0  0  0  0
  -13.5893  -26.8317  -37.7839 O   0  0  0  0  0  0  0  0  0  0  0  0
  -14.6878  -24.9209  -37.1442 N   0  0  0  0  0  0  0  0  0  0  0  0
  -15.9477  -24.9750  -37.9100 C   0  0  0  0  0  0  0  0  0  0  0  0
  -16.0234  -24.0469  -39.0625 C   0  0  0  0  0  0  0  0  0  0  0  0
  -17.3859  -24.0959  -39.7657 C   0  0  0  0  0  0  0  0  0  0  0  0
  -18.5659  -23.8113  -38.8887 C   0  0  0  0  0  0  0  0  0  0  0  0
  -18.3781  -24.6624  -37.6750 C   0  0  0  0  0  0  0  0  0  0  0  0
  -17.0323  -24.4356  -37.0627 C   0  0  0  0  0  0  0  0  0  0  0  0
  -17.0121  -24.9084  -36.1253 H   0  0  0  0  0  0  0  0  0  0  0  0
  -16.8968  -23.4021  -36.9365 H   0  0  0  0  0  0  0  0  0  0  0  0
  -19.1250  -24.4224  -36.9771 H   0  0  0  0  0  0  0  0  0  0  0  0
  -18.4705  -25.6705  -37.9536 H   0  0  0  0  0  0  0  0  0  0  0  0
  -19.4492  -24.0611  -39.3985 H   0  0  0  0  0  0  0  0  0  0  0  0
  -18.5807  -22.7908  -38.6422 H   0  0  0  0  0  0  0  0  0  0  0  0
  -17.4076  -23.3836  -40.5369 H   0  0  0  0  0  0  0  0  0  0  0  0
  -17.5372  -25.0534  -40.1694 H   0  0  0  0  0  0  0  0  0  0  0  0
  -15.2867  -24.3015  -39.7660 H   0  0  0  0  0  0  0  0  0  0  0  0
  -15.8656  -23.0633  -38.7308 H   0  0  0  0  0  0  0  0  0  0  0  0
  -16.0819  -25.9425  -38.2952 H   0  0  0  0  0  0  0  0  0  0  0  0
  -14.6580  -24.1201  -36.5294 H   0  0  0  0  0  0  0  0  0  0  0  0
  -12.8497  -24.6117  -35.8195 H   0  0  0  0  0  0  0  0  0  0  0  0
  -10.7841  -27.1246  -36.5723 C   0  0  0  0  0  0  0  0  0  0  0  0
   -9.5666  -27.6033  -36.1769 C   0  0  0  0  0  0  0  0  0  0  0  0
   -9.1300  -28.4463  -36.6256 H   0  0  0  0  0  0  0  0  0  0  0  0
  -11.3536  -27.5859  -37.3242 H   0  0  0  0  0  0  0  0  0  0  0  0
  -11.0570  -24.5479  -34.4557 H   0  0  0  0  0  0  0  0  0  0  0  0
   -8.8817  -25.4008  -33.7376 H   0  0  0  0  0  0  0  0  0  0  0  0
   -7.7432  -28.7599  -34.8389 C   0  0  0  0  0  0  0  0  0  0  0  0
   -6.8011  -29.4834  -33.8974 C   0  0  0  0  0  0  0  0  0  0  0  0
   -5.7641  -28.6002  -33.6451 O   0  0  0  0  0  0  0  0  0  0  0  0
   -5.2961  -28.3584  -34.5301 H   0  0  0  0  0  0  0  0  0  0  0  0
   -6.2398  -30.7665  -34.5040 C   0  0  0  0  0  0  0  0  0  0  0  0
   -5.2760  -31.4202  -33.6344 N   0  3  0  0  0  0  0  0  0  0  0  0
   -4.8412  -32.7259  -34.0999 C   0  0  0  0  0  0  0  0  0  0  0  0
   -4.5275  -32.7282  -35.5780 C   0  0  0  0  0  0  0  0  0  0  0  0
   -5.4186  -32.6330  -36.1252 H   0  0  0  0  0  0  0  0  0  0  0  0
   -4.0543  -33.6299  -35.8340 H   0  0  0  0  0  0  0  0  0  0  0  0
   -3.8915  -31.9234  -35.8021 H   0  0  0  0  0  0  0  0  0  0  0  0
   -5.9397  -33.7683  -33.8765 C   0  0  0  0  0  0  0  0  0  0  0  0
   -6.7638  -33.5450  -34.4878 H   0  0  0  0  0  0  0  0  0  0  0  0
   -5.5722  -34.7215  -34.1191 H   0  0  0  0  0  0  0  0  0  0  0  0
   -6.2367  -33.7536  -32.8695 H   0  0  0  0  0  0  0  0  0  0  0  0
   -3.5637  -33.0771  -33.3578 C   0  0  0  0  0  0  0  0  0  0  0  0
   -3.2865  -34.0639  -33.5856 H   0  0  0  0  0  0  0  0  0  0  0  0
   -3.7239  -32.9885  -32.3239 H   0  0  0  0  0  0  0  0  0  0  0  0
   -2.7973  -32.4218  -33.6506 H   0  0  0  0  0  0  0  0  0  0  0  0
   -5.7115  -31.5138  -32.7280 H   0  0  0  0  0  0  0  0  0  0  0  0
   -4.4779  -30.8055  -33.5626 H   0  0  0  0  0  0  0  0  0  0  0  0
   -7.0444  -31.4163  -34.6857 H   0  0  0  0  0  0  0  0  0  0  0  0
   -5.7782  -30.5181  -35.4138 H   0  0  0  0  0  0  0  0  0  0  0  0
   -7.2794  -29.7285  -32.9954 H   0  0  0  0  0  0  0  0  0  0  0  0
   -8.7172  -29.1075  -34.6577 H   0  0  0  0  0  0  0  0  0  0  0  0
   -7.4653  -28.9948  -35.8238 H   0  0  0  0  0  0  0  0  0  0  0  0
  1  2  1  0  0  0  0
  1 35  1  0  0  0  0
  2  3  2  0  0  0  0
  2 30  1  0  0  0  0
  3  4  1  0  0  0  0
  3 34  1  0  0  0  0
  4  5  2  0  0  0  0
  4 33  1  0  0  0  0
  5  6  1  0  0  0  0
  5 29  1  0  0  0  0
  6  7  1  0  0  0  0
  6 28  1  0  0  0  0
  7  8  2  0  0  0  0
  7  9  1  0  0  0  0
  9 10  1  0  0  0  0
  9 27  1  0  0  0  0
 10 11  1  0  0  0  0
 10 15  1  0  0  0  0
 10 26  1  0  0  0  0
 11 12  1  0  0  0  0
 11 24  1  0  0  0  0
 11 25  1  0  0  0  0
 12 13  1  0  0  0  0
 12 22  1  0  0  0  0
 12 23  1  0  0  0  0
 13 14  1  0  0  0  0
 13 20  1  0  0  0  0
 13 21  1  0  0  0  0
 14 15  1  0  0  0  0
 14 18  1  0  0  0  0
 14 19  1  0  0  0  0
 15 16  1  0  0  0  0
 15 17  1  0  0  0  0
 29 30  2  0  0  0  0
 29 32  1  0  0  0  0
 30 31  1  0  0  0  0
 35 36  1  0  0  0  0
 35 59  1  0  0  0  0
 35 60  1  0  0  0  0
 36 37  1  0  0  0  0
 36 39  1  0  0  0  0
 36 58  1  0  0  0  0
 37 38  1  0  0  0  0
 39 40  1  0  0  0  0
 39 56  1  0  0  0  0
 39 57  1  0  0  0  0
 40 41  1  0  0  0  0
 40 54  1  0  0  0  0
 40 55  1  0  0  0  0
 41 42  1  0  0  0  0
 41 46  1  0  0  0  0
 41 50  1  0  0  0  0
 42 43  1  0  0  0  0
 42 44  1  0  0  0  0
 42 45  1  0  0  0  0
 46 47  1  0  0  0  0
 46 48  1  0  0  0  0
 46 49  1  0  0  0  0
 50 51  1  0  0  0  0
 50 52  1  0  0  0  0
 50 53  1  0  0  0  0
M  CHG  1  40   1
M  END
> <CanonicalPdbName>
6HGV-G3Q_602_A

> <Gold.Version>
5.2

> <Gold.Id.Protein>
6HGV|6HGV_protein|mol2

> <Gold.Goldscore.Fitness>
85.3470

> <Gold.Goldscore.Internal.Vdw>
-36.3186

> <Gold.Goldscore.Internal.Torsion>
-4.4977

> <Gold.Goldscore.External.Vdw>
57.7797

> <Gold.Goldscore.Internal.HBond>
0.0000

> <Gold.Goldscore.External.HBond>
8.4003

> <Gold.Goldscore.Internal.Correction>
-38.3160

> <Gold.Goldscore.Hbonds>
donor molecule, donor type, donor heavy atom, donor atom, acceptor molecule, acceptor atom, score
      L1  H     6    28       P1   853  0.68
      L1  H     9    27       P1   853  0.72

> <Gold.Goldscore.Internal.Vdw.Weighted>
-36.3186

> <Gold.Goldscore.Internal.Torsion.Weighted>
-4.4977

> <Gold.Goldscore.External.Vdw.Weighted>
79.4471

> <Gold.Goldscore.Internal.HBond.Weighted>
0.0000

> <Gold.Goldscore.External.HBond.Weighted>
8.4003

> <Gold.Goldscore.Internal.Correction.Weighted>
-38.3160

> <Gold.Protein.RotatedTorsions>
[ 3781 1176 1175 1172 ] final -123.44 input   60.00 | X-H torsion
[ 3847 1247 1246 1244 ] final  -53.08 input   60.00 | X-H torsion
[ 4507 1931 1930 1928 ] final  102.89 input   60.00 | X-H torsion
[ 3677 1070 1069 1066 ] final -102.34 input   60.00 | X-H torsion
[ 3525  925  924  922 ] final   33.11 input   59.99 | X-H torsion
[ 4531 1957 1955 1953 ] final  170.48 input   60.00 | X-H torsion

> <Gold.Protein.ActiveResidues>
 PHE267  PRO268  MET310  ASP335  TRP336  MET339  TYR343  THR360  PRO361  ILE363 
 PRO371  SER374  ILE375  ASN378  PHE381  TYR383  GLN384  PHE387  LEU408  LEU417 
 MET419  LEU428  TYR466  MET469  ASN472  ASP496  VAL498  LEU499  MET503  HIS524 
 TRP525 

> <Gold.Protein.RotatedAtoms>
   -3.2022  -29.6879  -30.8049 H   0  0  0  0  0  0  0  0  0  0  0  0  # atno 3525 bound_to 925 
  -11.7011  -23.7377  -31.4242 H   0  0  0  0  0  0  0  0  0  0  0  0  # atno 3677 bound_to 1070
   -9.4355  -36.3128  -33.7072 H   0  0  0  0  0  0  0  0  0  0  0  0  # atno 3781 bound_to 1176
  -16.0676  -27.9747  -37.1988 H   0  0  0  0  0  0  0  0  0  0  0  0  # atno 3847 bound_to 1247
  -12.4337  -24.1019  -39.1347 H   0  0  0  0  0  0  0  0  0  0  0  0  # atno 4507 bound_to 1931
   -1.6134  -33.8676  -36.9491 H   0  0  0  0  0  0  0  0  0  0  0  0  # atno 4531 bound_to 1957
   -9.8867  -37.1137  -32.3644 LP  0  0  0  0  0  0  0  0  0  0  0  0  # atno 5205 bound_to 1176
  -10.7927  -37.2106  -33.7196 LP  0  0  0  0  0  0  0  0  0  0  0  0  # atno 5206 bound_to 1176
  -14.7542  -27.3679  -37.9437 LP  0  0  0  0  0  0  0  0  0  0  0  0  # atno 5215 bound_to 1247
  -14.7363  -28.8953  -37.3664 LP  0  0  0  0  0  0  0  0  0  0  0  0  # atno 5216 bound_to 1247
  -13.4298  -25.3785  -39.2969 LP  0  0  0  0  0  0  0  0  0  0  0  0  # atno 5217 bound_to 1931
  -13.3357  -24.2571  -40.4802 LP  0  0  0  0  0  0  0  0  0  0  0  0  # atno 5218 bound_to 1931
  -11.3588  -22.2877  -30.7697 LP  0  0  0  0  0  0  0  0  0  0  0  0  # atno 5224 bound_to 1070
  -12.7959  -23.0030  -30.4704 LP  0  0  0  0  0  0  0  0  0  0  0  0  # atno 5225 bound_to 1070

$$$$
(6HGV) [A] G3Q602|ligand_6hgv|sdf|1|dock2
  -GOLD-  10182016443D 1   1.00000     0.00000

 60 61  0  0  0  0  0  0  0  0  2 V2000
   -7.8398  -27.5154  -34.3613 O   0  0  0  0  0  0  0  0  0  0  0  0
   -8.9832  -26.9897  -34.9155 C   0  0  0  0  0  0  0  0  0  0  0  0
   -9.6015  -26.0346  -34.1678 C   0  0  0  0  0  0  0  0  0  0  0  0
  -10.7527  -25.5020  -34.6317 C   0  0  0  0  0  0  0  0  0  0  0  0
  -11.2379  -25.9289  -35.8275 C   0  0  0  0  0  0  0  0  0  0  0  0
  -12.4733  -25.3370  -36.2153 N   0  0  0  0  0  0  0  0  0  0  0  0
  -13.4703  -25.6849  -37.1877 C   0  0  0  0  0  0  0  0  0  0  0  0
  -13.4929  -26.6604  -37.7983 O   0  0  0  0  0  0  0  0  0  0  0  0
  -14.5647  -24.7246  -37.1893 N   0  0  0  0  0  0  0  0  0  0  0  0
  -15.7823  -24.7281  -38.0226 C   0  0  0  0  0  0  0  0  0  0  0  0
  -16.1485  -23.4165  -38.6065 C   0  0  0  0  0  0  0  0  0  0  0  0
  -17.4640  -23.4723  -39.3936 C   0  0  0  0  0  0  0  0  0  0  0  0
  -18.6494  -23.9596  -38.6191 C   0  0  0  0  0  0  0  0  0  0  0  0
  -18.1953  -25.2071  -37.9333 C   0  0  0  0  0  0  0  0  0  0  0  0
  -16.9481  -24.9629  -37.1444 C   0  0  0  0  0  0  0  0  0  0  0  0
  -16.7685  -25.8039  -36.5418 H   0  0  0  0  0  0  0  0  0  0  0  0
  -17.1021  -24.1219  -36.5349 H   0  0  0  0  0  0  0  0  0  0  0  0
  -18.9580  -25.5337  -37.2898 H   0  0  0  0  0  0  0  0  0  0  0  0
  -18.0115  -25.9424  -38.6599 H   0  0  0  0  0  0  0  0  0  0  0  0
  -19.4431  -24.1527  -39.2788 H   0  0  0  0  0  0  0  0  0  0  0  0
  -18.9405  -23.2261  -37.9265 H   0  0  0  0  0  0  0  0  0  0  0  0
  -17.7067  -22.5107  -39.7384 H   0  0  0  0  0  0  0  0  0  0  0  0
  -17.3547  -24.1205  -40.2125 H   0  0  0  0  0  0  0  0  0  0  0  0
  -15.3916  -23.1020  -39.2629 H   0  0  0  0  0  0  0  0  0  0  0  0
  -16.2609  -22.7103  -37.8377 H   0  0  0  0  0  0  0  0  0  0  0  0
  -15.6532  -25.3891  -38.8281 H   0  0  0  0  0  0  0  0  0  0  0  0
  -14.5436  -23.9338  -36.5615 H   0  0  0  0  0  0  0  0  0  0  0  0
  -12.7926  -24.4922  -35.7630 H   0  0  0  0  0  0  0  0  0  0  0  0
  -10.6593  -26.9194  -36.5757 C   0  0  0  0  0  0  0  0  0  0  0  0
   -9.4891  -27.4563  -36.1173 C   0  0  0  0  0  0  0  0  0  0  0  0
   -8.9754  -28.2020  -36.6490 H   0  0  0  0  0  0  0  0  0  0  0  0
  -11.1153  -27.2394  -37.4657 H   0  0  0  0  0  0  0  0  0  0  0  0
  -11.2714  -24.7703  -34.0857 H   0  0  0  0  0  0  0  0  0  0  0  0
   -9.1821  -25.7293  -33.2548 H   0  0  0  0  0  0  0  0  0  0  0  0
   -7.8185  -28.8277  -34.7831 C   0  0  0  0  0  0  0  0  0  0  0  0
   -6.9910  -29.7075  -33.8674 C   0  0  0  0  0  0  0  0  0  0  0  0
   -5.8884  -28.9500  -33.5074 O   0  0  0  0  0  0  0  0  0  0  0  0
   -5.3572  -28.6939  -34.3518 H   0  0  0  0  0  0  0  0  0  0  0  0
   -6.5252  -30.9894  -34.5525 C   0  0  0  0  0  0  0  0  0  0  0  0
   -5.7202  -31.8280  -33.6801 N   0  3  0  0  0  0  0  0  0  0  0  0
   -5.2901  -33.0776  -34.2834 C   0  0  0  0  0  0  0  0  0  0  0  0
   -4.3020  -33.8197  -33.4139 C   0  0  0  0  0  0  0  0  0  0  0  0
   -4.7319  -34.0032  -32.4737 H   0  0  0  0  0  0  0  0  0  0  0  0
   -3.4353  -33.2390  -33.2951 H   0  0  0  0  0  0  0  0  0  0  0  0
   -4.0521  -34.7325  -33.8687 H   0  0  0  0  0  0  0  0  0  0  0  0
   -4.5959  -32.8160  -35.6224 C   0  0  0  0  0  0  0  0  0  0  0  0
   -3.9128  -32.0260  -35.5141 H   0  0  0  0  0  0  0  0  0  0  0  0
   -4.0849  -33.6813  -35.9267 H   0  0  0  0  0  0  0  0  0  0  0  0
   -5.3139  -32.5613  -36.3451 H   0  0  0  0  0  0  0  0  0  0  0  0
   -6.5170  -33.9588  -34.4408 C   0  0  0  0  0  0  0  0  0  0  0  0
   -7.0965  -33.6116  -35.2446 H   0  0  0  0  0  0  0  0  0  0  0  0
   -7.0864  -33.9266  -33.5593 H   0  0  0  0  0  0  0  0  0  0  0  0
   -6.2163  -34.9473  -34.6274 H   0  0  0  0  0  0  0  0  0  0  0  0
   -6.2779  -32.0239  -32.8612 H   0  0  0  0  0  0  0  0  0  0  0  0
   -4.9102  -31.2863  -33.4141 H   0  0  0  0  0  0  0  0  0  0  0  0
   -7.3782  -31.5199  -34.8584 H   0  0  0  0  0  0  0  0  0  0  0  0
   -5.9609  -30.7180  -35.3953 H   0  0  0  0  0  0  0  0  0  0  0  0
   -7.5299  -29.9727  -33.0061 H   0  0  0  0  0  0  0  0  0  0  0  0
   -8.7980  -29.2053  -34.8018 H   0  0  0  0  0  0  0  0  0  0  0  0
   -7.4052  -28.8789  -35.7470 H   0  0  0  0  0  0  0  0  0  0  0  0
  1  2  1  0  0  0  0
  1 35  1  0  0  0  0
  2  3  2  0  0  0  0
  2 30  1  0  0  0  0
  3  4  1  0  0  0  0
  3 34  1  0  0  0  0
  4  5  2  0  0  0  0
  4 33  1  0  0  0  0
  5  6  1  0  0  0  0
  5 29  1  0  0  0  0
  6  7  1  0  0  0  0
  6 28  1  0  0  0  0
  7  8  2  0  0  0  0
  7  9  1  0  0  0  0
  9 10  1  0  0  0  0
  9 27  1  0  0  0  0
 10 11  1  0  0  0  0
 10 15  1  0  0  0  0
 10 26  1  0  0  0  0
 11 12  1  0  0  0  0
 11 24  1  0  0  0  0
 11 25  1  0  0  0  0
 12 13  1  0  0  0  0
 12 22  1  0  0  0  0
 12 23  1  0  0  0  0
 13 14  1  0  0  0  0
 13 20  1  0  0  0  0
 13 21  1  0  0  0  0
 14 15  1  0  0  0  0
 14 18  1  0  0  0  0
 14 19  1  0  0  0  0
 15 16  1  0  0  0  0
 15 17  1  0  0  0  0
 29 30  2  0  0  0  0
 29 32  1  0  0  0  0
 30 31  1  0  0  0  0
 35 36  1  0  0  0  0
 35 59  1  0  0  0  0
 35 60  1  0  0  0  0
 36 37  1  0  0  0  0
 36 39  1  0  0  0  0
 36 58  1  0  0  0  0
 37 38  1  0  0  0  0
 39 40  1  0  0  0  0
 39 56  1  0  0  0  0
 39 57  1  0  0  0  0
 40 41  1  0  0  0  0
 40 54  1  0  0  0  0
 40 55  1  0  0  0  0
 41 42  1  0  0  0  0
 41 46  1  0  0  0  0
 41 50  1  0  0  0  0
 42 43  1  0  0  0  0
 42 44  1  0  0  0  0
 42 45  1  0  0  0  0
 46 47  1  0  0  0  0
 46 48  1  0  0  0  0
 46 49  1  0  0  0  0
 50 51  1  0  0  0  0
 50 52  1  0  0  0  0
 50 53  1  0  0  0  0
M  CHG  1  40   1
M  END
> <CanonicalPdbName>
6HGV-G3Q_602_A

> <Gold.Version>
5.2

> <Gold.Id.Protein>
6HGV|6HGV_protein|mol2

> <Gold.Goldscore.Fitness>
85.0216

> <Gold.Goldscore.Internal.Vdw>
-35.8944

> <Gold.Goldscore.Internal.Torsion>
-4.4649

> <Gold.Goldscore.External.Vdw>
56.2911

> <Gold.Goldscore.Internal.HBond>
0.0000

> <Gold.Goldscore.External.HBond>
8.0360

> <Gold.Goldscore.Internal.Correction>
-39.9447

> <Gold.Goldscore.Hbonds>
donor molecule, donor type, donor heavy atom, donor atom, acceptor molecule, acceptor atom, score
      P1  H  1247  3847       L1     8  0.17
      L1  H     6    28       P1   853  0.60
      L1  H     9    27       P1   853  0.68

> <Gold.Goldscore.Internal.Vdw.Weighted>
-35.8944

> <Gold.Goldscore.Internal.Torsion.Weighted>
-4.4649

> <Gold.Goldscore.External.Vdw.Weighted>
77.4003

> <Gold.Goldscore.Internal.HBond.Weighted>
0.0000

> <Gold.Goldscore.External.HBond.Weighted>
8.0360

> <Gold.Goldscore.Internal.Correction.Weighted>
-39.9447

> <Gold.Protein.RotatedTorsions>
[ 3781 1176 1175 1172 ] final -152.80 input   60.00 | X-H torsion
[ 3847 1247 1246 1244 ] final  154.96 input   60.00 | X-H torsion
[ 4507 1931 1930 1928 ] final  112.59 input   60.00 | X-H torsion
[ 3677 1070 1069 1066 ] final -117.31 input   60.00 | X-H torsion
[ 3525  925  924  922 ] final   47.52 input   59.99 | X-H torsion
[ 4531 1957 1955 1953 ] final -172.31 input   60.00 | X-H torsion

> <Gold.Protein.ActiveResidues>
 PHE267  PRO268  MET310  ASP335  TRP336  MET339  TYR343  THR360  PRO361  ILE363 
 PRO371  SER374  ILE375  ASN378  PHE381  TYR383  GLN384  PHE387  LEU408  LEU417 
 MET419  LEU428  TYR466  MET469  ASN472  ASP496  VAL498  LEU499  MET503  HIS524 
 TRP525 

> <Gold.Protein.RotatedAtoms>
   -2.9917  -29.7743  -30.8635 H   0  0  0  0  0  0  0  0  0  0  0  0  # atno 3525 bound_to 925 
  -11.4968  -23.6072  -31.4503 H   0  0  0  0  0  0  0  0  0  0  0  0  # atno 3677 bound_to 1070
   -9.2580  -36.3583  -33.2695 H   0  0  0  0  0  0  0  0  0  0  0  0  # atno 3781 bound_to 1176
  -14.4177  -27.7606  -37.9283 H   0  0  0  0  0  0  0  0  0  0  0  0  # atno 3847 bound_to 1247
  -12.4336  -24.0004  -39.2562 H   0  0  0  0  0  0  0  0  0  0  0  0  # atno 4507 bound_to 1931
   -1.4242  -33.6637  -36.9815 H   0  0  0  0  0  0  0  0  0  0  0  0  # atno 4531 bound_to 1957
  -10.2911  -37.3391  -32.4829 LP  0  0  0  0  0  0  0  0  0  0  0  0  # atno 5205 bound_to 1176
  -10.5671  -36.9393  -34.0419 LP  0  0  0  0  0  0  0  0  0  0  0  0  # atno 5206 bound_to 1176
  -15.2079  -28.9565  -37.1580 LP  0  0  0  0  0  0  0  0  0  0  0  0  # atno 5215 bound_to 1247
  -15.9443  -27.5223  -37.4176 LP  0  0  0  0  0  0  0  0  0  0  0  0  # atno 5216 bound_to 1247
  -13.3366  -25.3515  -39.1703 LP  0  0  0  0  0  0  0  0  0  0  0  0  # atno 5217 bound_to 1931
  -13.4290  -24.3863  -40.4844 LP  0  0  0  0  0  0  0  0  0  0  0  0  # atno 5218 bound_to 1931
  -11.5423  -22.2021  -30.6307 LP  0  0  0  0  0  0  0  0  0  0  0  0  # atno 5224 bound_to 1070
  -12.8182  -23.2200  -30.5831 LP  0  0  0  0  0  0  0  0  0  0  0  0  # atno 5225 bound_to 1070

$$$$
(6HGV) [A] G3Q602|ligand_6hgv|sdf|1|dock9
  -GOLD-  10182016463D 1   1.00000     0.00000

 60 61  0  0  0  0  0  0  0  0  2 V2000
   -7.9303  -27.7694  -34.9156 O   0  0  0  0  0  0  0  0  0  0  0  0
   -9.1060  -27.2241  -35.3750 C   0  0  0  0  0  0  0  0  0  0  0  0
   -9.4985  -26.0825  -34.7454 C   0  0  0  0  0  0  0  0  0  0  0  0
  -10.6652  -25.5131  -35.1177 C   0  0  0  0  0  0  0  0  0  0  0  0
  -11.3903  -26.0922  -36.1109 C   0  0  0  0  0  0  0  0  0  0  0  0
  -12.6210  -25.4410  -36.4081 N   0  0  0  0  0  0  0  0  0  0  0  0
  -13.6698  -25.7003  -37.3532 C   0  0  0  0  0  0  0  0  0  0  0  0
  -13.7509  -26.6369  -38.0175 O   0  0  0  0  0  0  0  0  0  0  0  0
  -14.7310  -24.7087  -37.2504 N   0  0  0  0  0  0  0  0  0  0  0  0
  -15.9828  -24.6259  -38.0270 C   0  0  0  0  0  0  0  0  0  0  0  0
  -16.2545  -23.3059  -38.6428 C   0  0  0  0  0  0  0  0  0  0  0  0
  -17.6062  -23.2644  -39.3669 C   0  0  0  0  0  0  0  0  0  0  0  0
  -18.7925  -23.6123  -38.5218 C   0  0  0  0  0  0  0  0  0  0  0  0
  -18.4224  -24.8733  -37.8106 C   0  0  0  0  0  0  0  0  0  0  0  0
  -17.1212  -24.7210  -37.0887 C   0  0  0  0  0  0  0  0  0  0  0  0
  -16.9908  -25.5544  -36.4636 H   0  0  0  0  0  0  0  0  0  0  0  0
  -17.1674  -23.8494  -36.5050 H   0  0  0  0  0  0  0  0  0  0  0  0
  -19.1798  -25.1054  -37.1215 H   0  0  0  0  0  0  0  0  0  0  0  0
  -18.3426  -25.6464  -38.5165 H   0  0  0  0  0  0  0  0  0  0  0  0
  -19.6317  -23.7520  -39.1371 H   0  0  0  0  0  0  0  0  0  0  0  0
  -18.9808  -22.8321  -37.8448 H   0  0  0  0  0  0  0  0  0  0  0  0
  -17.7758  -22.2963  -39.7364 H   0  0  0  0  0  0  0  0  0  0  0  0
  -17.5970  -23.9469  -40.1649 H   0  0  0  0  0  0  0  0  0  0  0  0
  -15.5047  -23.0858  -39.3441 H   0  0  0  0  0  0  0  0  0  0  0  0
  -16.2640  -22.5670  -37.8969 H   0  0  0  0  0  0  0  0  0  0  0  0
  -15.9543  -25.3226  -38.8120 H   0  0  0  0  0  0  0  0  0  0  0  0
  -14.6568  -23.9574  -36.5795 H   0  0  0  0  0  0  0  0  0  0  0  0
  -12.8925  -24.6152  -35.8939 H   0  0  0  0  0  0  0  0  0  0  0  0
  -11.0399  -27.2637  -36.7275 C   0  0  0  0  0  0  0  0  0  0  0  0
   -9.8558  -27.8407  -36.3628 C   0  0  0  0  0  0  0  0  0  0  0  0
   -9.5099  -28.7261  -36.8088 H   0  0  0  0  0  0  0  0  0  0  0  0
  -11.6728  -27.6859  -37.4512 H   0  0  0  0  0  0  0  0  0  0  0  0
  -11.0148  -24.6382  -34.6541 H   0  0  0  0  0  0  0  0  0  0  0  0
   -8.8986  -25.6663  -33.9908 H   0  0  0  0  0  0  0  0  0  0  0  0
   -8.0944  -29.1301  -35.0646 C   0  0  0  0  0  0  0  0  0  0  0  0
   -7.2075  -29.9180  -34.1213 C   0  0  0  0  0  0  0  0  0  0  0  0
   -6.0038  -29.2342  -34.0716 O   0  0  0  0  0  0  0  0  0  0  0  0
   -5.5982  -29.1839  -35.0170 H   0  0  0  0  0  0  0  0  0  0  0  0
   -6.9620  -31.3448  -34.6047 C   0  0  0  0  0  0  0  0  0  0  0  0
   -8.1639  -32.1611  -34.5689 N   0  3  0  0  0  0  0  0  0  0  0  0
   -8.0024  -33.4869  -35.1404 C   0  0  0  0  0  0  0  0  0  0  0  0
   -7.6498  -33.4352  -36.6088 C   0  0  0  0  0  0  0  0  0  0  0  0
   -7.7642  -34.3901  -37.0301 H   0  0  0  0  0  0  0  0  0  0  0  0
   -6.6539  -33.1211  -36.7188 H   0  0  0  0  0  0  0  0  0  0  0  0
   -8.2862  -32.7582  -37.0980 H   0  0  0  0  0  0  0  0  0  0  0  0
   -9.3040  -34.2840  -35.0231 C   0  0  0  0  0  0  0  0  0  0  0  0
   -9.1585  -35.2503  -35.4074 H   0  0  0  0  0  0  0  0  0  0  0  0
   -9.5858  -34.3475  -34.0136 H   0  0  0  0  0  0  0  0  0  0  0  0
  -10.0606  -33.8009  -35.5679 H   0  0  0  0  0  0  0  0  0  0  0  0
   -6.8529  -34.1639  -34.4147 C   0  0  0  0  0  0  0  0  0  0  0  0
   -6.8639  -35.1927  -34.6244 H   0  0  0  0  0  0  0  0  0  0  0  0
   -6.9567  -34.0165  -33.3803 H   0  0  0  0  0  0  0  0  0  0  0  0
   -5.9433  -33.7506  -34.7376 H   0  0  0  0  0  0  0  0  0  0  0  0
   -8.8773  -31.6595  -35.0784 H   0  0  0  0  0  0  0  0  0  0  0  0
   -8.4369  -32.2432  -33.5999 H   0  0  0  0  0  0  0  0  0  0  0  0
   -6.6024  -31.2941  -35.5899 H   0  0  0  0  0  0  0  0  0  0  0  0
   -6.2294  -31.7732  -33.9863 H   0  0  0  0  0  0  0  0  0  0  0  0
   -7.6236  -29.9646  -33.1584 H   0  0  0  0  0  0  0  0  0  0  0  0
   -9.0929  -29.3861  -34.8650 H   0  0  0  0  0  0  0  0  0  0  0  0
   -7.8522  -29.4062  -36.0483 H   0  0  0  0  0  0  0  0  0  0  0  0
  1  2  1  0  0  0  0
  1 35  1  0  0  0  0
  2  3  2  0  0  0  0
  2 30  1  0  0  0  0
  3  4  1  0  0  0  0
  3 34  1  0  0  0  0
  4  5  2  0  0  0  0
  4 33  1  0  0  0  0
  5  6  1  0  0  0  0
  5 29  1  0  0  0  0
  6  7  1  0  0  0  0
  6 28  1  0  0  0  0
  7  8  2  0  0  0  0
  7  9  1  0  0  0  0
  9 10  1  0  0  0  0
  9 27  1  0  0  0  0
 10 11  1  0  0  0  0
 10 15  1  0  0  0  0
 10 26  1  0  0  0  0
 11 12  1  0  0  0  0
 11 24  1  0  0  0  0
 11 25  1  0  0  0  0
 12 13  1  0  0  0  0
 12 22  1  0  0  0  0
 12 23  1  0  0  0  0
 13 14  1  0  0  0  0
 13 20  1  0  0  0  0
 13 21  1  0  0  0  0
 14 15  1  0  0  0  0
 14 18  1  0  0  0  0
 14 19  1  0  0  0  0
 15 16  1  0  0  0  0
 15 17  1  0  0  0  0
 29 30  2  0  0  0  0
 29 32  1  0  0  0  0
 30 31  1  0  0  0  0
 35 36  1  0  0  0  0
 35 59  1  0  0  0  0
 35 60  1  0  0  0  0
 36 37  1  0  0  0  0
 36 39  1  0  0  0  0
 36 58  1  0  0  0  0
 37 38  1  0  0  0  0
 39 40  1  0  0  0  0
 39 56  1  0  0  0  0
 39 57  1  0  0  0  0
 40 41  1  0  0  0  0
 40 54  1  0  0  0  0
 40 55  1  0  0  0  0
 41 42  1  0  0  0  0
 41 46  1  0  0  0  0
 41 50  1  0  0  0  0
 42 43  1  0  0  0  0
 42 44  1  0  0  0  0
 42 45  1  0  0  0  0
 46 47  1  0  0  0  0
 46 48  1  0  0  0  0
 46 49  1  0  0  0  0
 50 51  1  0  0  0  0
 50 52  1  0  0  0  0
 50 53  1  0  0  0  0
M  CHG  1  40   1
M  END
> <CanonicalPdbName>
6HGV-G3Q_602_A

> <Gold.Version>
5.2

> <Gold.Id.Protein>
6HGV|6HGV_protein|mol2

> <Gold.Goldscore.Fitness>
82.1574

> <Gold.Goldscore.Internal.Vdw>
-37.2065

> <Gold.Goldscore.Internal.Torsion>
-4.1529

> <Gold.Goldscore.External.Vdw>
55.7045

> <Gold.Goldscore.Internal.HBond>
0.0000

> <Gold.Goldscore.External.HBond>
8.6072

> <Gold.Goldscore.Internal.Correction>
-38.3160

> <Gold.Goldscore.Hbonds>
donor molecule, donor type, donor heavy atom, donor atom, acceptor molecule, acceptor atom, score
      L1  H     6    28       P1   853  0.68
      L1  H     9    27       P1   853  0.75

> <Gold.Goldscore.Internal.Vdw.Weighted>
-37.2065

> <Gold.Goldscore.Internal.Torsion.Weighted>
-4.1529

> <Gold.Goldscore.External.Vdw.Weighted>
76.5936

> <Gold.Goldscore.Internal.HBond.Weighted>
0.0000

> <Gold.Goldscore.External.HBond.Weighted>
8.6072

> <Gold.Goldscore.Internal.Correction.Weighted>
-38.3160

> <Gold.Protein.RotatedTorsions>
[ 3781 1176 1175 1172 ] final  176.18 input   60.00 | X-H torsion
[ 3847 1247 1246 1244 ] final  -71.89 input   60.00 | X-H torsion
[ 4507 1931 1930 1928 ] final  112.40 input   60.00 | X-H torsion
[ 3677 1070 1069 1066 ] final -117.31 input   60.00 | X-H torsion
[ 3525  925  924  922 ] final   20.67 input   59.99 | X-H torsion
[ 4531 1957 1955 1953 ] final   37.73 input   60.00 | X-H torsion

> <Gold.Protein.ActiveResidues>
 PHE267  PRO268  MET310  ASP335  TRP336  MET339  TYR343  THR360  PRO361  ILE363 
 PRO371  SER374  ILE375  ASN378  PHE381  TYR383  GLN384  PHE387  LEU408  LEU417 
 MET419  LEU428  TYR466  MET469  ASN472  ASP496  VAL498  LEU499  MET503  HIS524 
 TRP525 

> <Gold.Protein.RotatedAtoms>
   -3.3696  -29.6236  -30.7102 H   0  0  0  0  0  0  0  0  0  0  0  0  # atno 3525 bound_to 925 
  -11.4967  -23.6072  -31.4503 H   0  0  0  0  0  0  0  0  0  0  0  0  # atno 3677 bound_to 1070
   -9.2878  -36.5510  -32.8081 H   0  0  0  0  0  0  0  0  0  0  0  0  # atno 3781 bound_to 1176
  -16.0240  -27.6979  -37.3218 H   0  0  0  0  0  0  0  0  0  0  0  0  # atno 3847 bound_to 1247
  -12.4335  -24.0022  -39.2538 H   0  0  0  0  0  0  0  0  0  0  0  0  # atno 4507 bound_to 1931
   -3.0957  -33.0559  -36.6532 H   0  0  0  0  0  0  0  0  0  0  0  0  # atno 4531 bound_to 1957
  -10.6456  -37.4476  -32.8248 LP  0  0  0  0  0  0  0  0  0  0  0  0  # atno 5205 bound_to 1176
  -10.1826  -36.6368  -34.1646 LP  0  0  0  0  0  0  0  0  0  0  0  0  # atno 5206 bound_to 1176
  -14.5286  -27.5775  -37.9521 LP  0  0  0  0  0  0  0  0  0  0  0  0  # atno 5215 bound_to 1247
  -15.0059  -28.9644  -37.2342 LP  0  0  0  0  0  0  0  0  0  0  0  0  # atno 5216 bound_to 1247
  -13.3385  -25.3522  -39.1727 LP  0  0  0  0  0  0  0  0  0  0  0  0  # atno 5217 bound_to 1931
  -13.4273  -24.3838  -40.4845 LP  0  0  0  0  0  0  0  0  0  0  0  0  # atno 5218 bound_to 1931
  -11.5423  -22.2021  -30.6307 LP  0  0  0  0  0  0  0  0  0  0  0  0  # atno 5224 bound_to 1070
  -12.8182  -23.2201  -30.5831 LP  0  0  0  0  0  0  0  0  0  0  0  0  # atno 5225 bound_to 1070

$$$$
(6HGV) [A] G3Q602|ligand_6hgv|sdf|1|dock1
  -GOLD-  10182016433D 1   1.00000     0.00000

 60 61  0  0  0  0  0  0  0  0  2 V2000
   -7.6694  -27.5383  -34.7611 O   0  0  0  0  0  0  0  0  0  0  0  0
   -8.8732  -27.0541  -35.2162 C   0  0  0  0  0  0  0  0  0  0  0  0
   -9.3214  -25.9339  -34.5853 C   0  0  0  0  0  0  0  0  0  0  0  0
  -10.5171  -25.4251  -34.9534 C   0  0  0  0  0  0  0  0  0  0  0  0
  -11.2151  -26.0409  -35.9440 C   0  0  0  0  0  0  0  0  0  0  0  0
  -12.4787  -25.4537  -36.2367 N   0  0  0  0  0  0  0  0  0  0  0  0
  -13.5162  -25.7666  -37.1781 C   0  0  0  0  0  0  0  0  0  0  0  0
  -13.5515  -26.7063  -37.8420 O   0  0  0  0  0  0  0  0  0  0  0  0
  -14.6264  -24.8307  -37.0714 N   0  0  0  0  0  0  0  0  0  0  0  0
  -15.8836  -24.8123  -37.8436 C   0  0  0  0  0  0  0  0  0  0  0  0
  -16.2749  -23.4863  -38.3764 C   0  0  0  0  0  0  0  0  0  0  0  0
  -17.6277  -23.5212  -39.0989 C   0  0  0  0  0  0  0  0  0  0  0  0
  -18.7747  -24.0260  -38.2791 C   0  0  0  0  0  0  0  0  0  0  0  0
  -18.2904  -25.2905  -37.6472 C   0  0  0  0  0  0  0  0  0  0  0  0
  -17.0052  -25.0673  -36.9150 C   0  0  0  0  0  0  0  0  0  0  0  0
  -16.7982  -25.9230  -36.3428 H   0  0  0  0  0  0  0  0  0  0  0  0
  -17.1271  -24.2413  -36.2782 H   0  0  0  0  0  0  0  0  0  0  0  0
  -19.0212  -25.6320  -36.9751 H   0  0  0  0  0  0  0  0  0  0  0  0
  -18.1443  -26.0080  -38.3998 H   0  0  0  0  0  0  0  0  0  0  0  0
  -19.6004  -24.2019  -38.9034 H   0  0  0  0  0  0  0  0  0  0  0  0
  -19.0296  -23.3095  -37.5551 H   0  0  0  0  0  0  0  0  0  0  0  0
  -17.8848  -22.5511  -39.4076 H   0  0  0  0  0  0  0  0  0  0  0  0
  -17.5604  -24.1492  -39.9377 H   0  0  0  0  0  0  0  0  0  0  0  0
  -15.5505  -23.1567  -39.0613 H   0  0  0  0  0  0  0  0  0  0  0  0
  -16.3477  -22.7991  -37.5859 H   0  0  0  0  0  0  0  0  0  0  0  0
  -15.7958  -25.4535  -38.6704 H   0  0  0  0  0  0  0  0  0  0  0  0
  -14.5884  -24.0764  -36.4009 H   0  0  0  0  0  0  0  0  0  0  0  0
  -12.7902  -24.6427  -35.7216 H   0  0  0  0  0  0  0  0  0  0  0  0
  -10.8073  -27.1931  -36.5617 C   0  0  0  0  0  0  0  0  0  0  0  0
   -9.5940  -27.7085  -36.2013 C   0  0  0  0  0  0  0  0  0  0  0  0
   -9.2047  -28.5750  -36.6485 H   0  0  0  0  0  0  0  0  0  0  0  0
  -11.4204  -27.6473  -37.2831 H   0  0  0  0  0  0  0  0  0  0  0  0
  -10.9094  -24.5692  -34.4886 H   0  0  0  0  0  0  0  0  0  0  0  0
   -8.7409  -25.4873  -33.8329 H   0  0  0  0  0  0  0  0  0  0  0  0
   -7.7620  -28.9052  -34.9144 C   0  0  0  0  0  0  0  0  0  0  0  0
   -6.8231  -29.6481  -33.9850 C   0  0  0  0  0  0  0  0  0  0  0  0
   -5.5689  -29.0978  -34.1929 O   0  0  0  0  0  0  0  0  0  0  0  0
   -5.5574  -28.1284  -33.8453 H   0  0  0  0  0  0  0  0  0  0  0  0
   -6.7758  -31.1455  -34.2765 C   0  0  0  0  0  0  0  0  0  0  0  0
   -5.8495  -31.8542  -33.4092 N   0  3  0  0  0  0  0  0  0  0  0  0
   -4.6758  -32.3755  -34.0884 C   0  0  0  0  0  0  0  0  0  0  0  0
   -3.8403  -31.2781  -34.7055 C   0  0  0  0  0  0  0  0  0  0  0  0
   -2.9716  -31.6931  -35.1245 H   0  0  0  0  0  0  0  0  0  0  0  0
   -3.5741  -30.5826  -33.9653 H   0  0  0  0  0  0  0  0  0  0  0  0
   -4.3948  -30.7959  -35.4555 H   0  0  0  0  0  0  0  0  0  0  0  0
   -5.0866  -33.3148  -35.2251 C   0  0  0  0  0  0  0  0  0  0  0  0
   -5.2791  -32.7530  -36.0911 H   0  0  0  0  0  0  0  0  0  0  0  0
   -4.3098  -33.9953  -35.4149 H   0  0  0  0  0  0  0  0  0  0  0  0
   -5.9527  -33.8404  -34.9492 H   0  0  0  0  0  0  0  0  0  0  0  0
   -3.8181  -33.0786  -33.0508 C   0  0  0  0  0  0  0  0  0  0  0  0
   -3.5801  -32.4066  -32.2799 H   0  0  0  0  0  0  0  0  0  0  0  0
   -2.9341  -33.4214  -33.5017 H   0  0  0  0  0  0  0  0  0  0  0  0
   -4.3473  -33.8938  -32.6535 H   0  0  0  0  0  0  0  0  0  0  0  0
   -6.3619  -32.6166  -32.9894 H   0  0  0  0  0  0  0  0  0  0  0  0
   -5.5622  -31.2055  -32.6905 H   0  0  0  0  0  0  0  0  0  0  0  0
   -7.7437  -31.5306  -34.1440 H   0  0  0  0  0  0  0  0  0  0  0  0
   -6.4834  -31.2703  -35.2772 H   0  0  0  0  0  0  0  0  0  0  0  0
   -7.1005  -29.5177  -32.9807 H   0  0  0  0  0  0  0  0  0  0  0  0
   -8.7429  -29.2152  -34.7044 H   0  0  0  0  0  0  0  0  0  0  0  0
   -7.5170  -29.1640  -35.9021 H   0  0  0  0  0  0  0  0  0  0  0  0
  1  2  1  0  0  0  0
  1 35  1  0  0  0  0
  2  3  2  0  0  0  0
  2 30  1  0  0  0  0
  3  4  1  0  0  0  0
  3 34  1  0  0  0  0
  4  5  2  0  0  0  0
  4 33  1  0  0  0  0
  5  6  1  0  0  0  0
  5 29  1  0  0  0  0
  6  7  1  0  0  0  0
  6 28  1  0  0  0  0
  7  8  2  0  0  0  0
  7  9  1  0  0  0  0
  9 10  1  0  0  0  0
  9 27  1  0  0  0  0
 10 11  1  0  0  0  0
 10 15  1  0  0  0  0
 10 26  1  0  0  0  0
 11 12  1  0  0  0  0
 11 24  1  0  0  0  0
 11 25  1  0  0  0  0
 12 13  1  0  0  0  0
 12 22  1  0  0  0  0
 12 23  1  0  0  0  0
 13 14  1  0  0  0  0
 13 20  1  0  0  0  0
 13 21  1  0  0  0  0
 14 15  1  0  0  0  0
 14 18  1  0  0  0  0
 14 19  1  0  0  0  0
 15 16  1  0  0  0  0
 15 17  1  0  0  0  0
 29 30  2  0  0  0  0
 29 32  1  0  0  0  0
 30 31  1  0  0  0  0
 35 36  1  0  0  0  0
 35 59  1  0  0  0  0
 35 60  1  0  0  0  0
 36 37  1  0  0  0  0
 36 39  1  0  0  0  0
 36 58  1  0  0  0  0
 37 38  1  0  0  0  0
 39 40  1  0  0  0  0
 39 56  1  0  0  0  0
 39 57  1  0  0  0  0
 40 41  1  0  0  0  0
 40 54  1  0  0  0  0
 40 55  1  0  0  0  0
 41 42  1  0  0  0  0
 41 46  1  0  0  0  0
 41 50  1  0  0  0  0
 42 43  1  0  0  0  0
 42 44  1  0  0  0  0
 42 45  1  0  0  0  0
 46 47  1  0  0  0  0
 46 48  1  0  0  0  0
 46 49  1  0  0  0  0
 50 51  1  0  0  0  0
 50 52  1  0  0  0  0
 50 53  1  0  0  0  0
M  CHG  1  40   1
M  END
> <CanonicalPdbName>
6HGV-G3Q_602_A

> <Gold.Version>
5.2

> <Gold.Id.Protein>
6HGV|6HGV_protein|mol2

> <Gold.Goldscore.Fitness>
80.3893

> <Gold.Goldscore.Internal.Vdw>
-40.2317

> <Gold.Goldscore.Internal.Torsion>
-5.5211

> <Gold.Goldscore.External.Vdw>
56.5909

> <Gold.Goldscore.Internal.HBond>
0.0000

> <Gold.Goldscore.External.HBond>
8.0622

> <Gold.Goldscore.Internal.Correction>
-40.2674

> <Gold.Goldscore.Hbonds>
donor molecule, donor type, donor heavy atom, donor atom, acceptor molecule, acceptor atom, score
      L1  H     6    28       P1   853  0.53
      L1  H     9    27       P1   853  0.81

> <Gold.Goldscore.Internal.Vdw.Weighted>
-40.2317

> <Gold.Goldscore.Internal.Torsion.Weighted>
-5.5211

> <Gold.Goldscore.External.Vdw.Weighted>
77.8125

> <Gold.Goldscore.Internal.HBond.Weighted>
0.0000

> <Gold.Goldscore.External.HBond.Weighted>
8.0622

> <Gold.Goldscore.Internal.Correction.Weighted>
-40.2674

> <Gold.Protein.RotatedTorsions>
[ 3781 1176 1175 1172 ] final   78.23 input   60.00 | X-H torsion
[ 3847 1247 1246 1244 ] final  -46.85 input   60.00 | X-H torsion
[ 4507 1931 1930 1928 ] final  102.16 input   60.00 | X-H torsion
[ 3677 1070 1069 1066 ] final -118.47 input   60.00 | X-H torsion
[ 3525  925  924  922 ] final   29.30 input   59.99 | X-H torsion
[ 4531 1957 1955 1953 ] final  141.70 input   60.00 | X-H torsion

> <Gold.Protein.ActiveResidues>
 PHE267  PRO268  MET310  ASP335  TRP336  MET339  TYR343  THR360  PRO361  ILE363 
 PRO371  SER374  ILE375  ASN378  PHE381  TYR383  GLN384  PHE387  LEU408  LEU417 
 MET419  LEU428  TYR466  MET469  ASN472  ASP496  VAL498  LEU499  MET503  HIS524 
 TRP525 

> <Gold.Protein.RotatedAtoms>
   -3.2552  -29.6671  -30.7801 H   0  0  0  0  0  0  0  0  0  0  0  0  # atno 3525 bound_to 925 
  -11.4820  -23.5952  -31.4507 H   0  0  0  0  0  0  0  0  0  0  0  0  # atno 3677 bound_to 1070
  -10.4024  -37.3846  -32.5677 H   0  0  0  0  0  0  0  0  0  0  0  0  # atno 3781 bound_to 1176
  -16.0613  -28.0702  -37.1647 H   0  0  0  0  0  0  0  0  0  0  0  0  # atno 3847 bound_to 1247
  -12.4345  -24.1101  -39.1262 H   0  0  0  0  0  0  0  0  0  0  0  0  # atno 4507 bound_to 1931
   -2.0325  -34.0550  -36.8726 H   0  0  0  0  0  0  0  0  0  0  0  0  # atno 4531 bound_to 1957
  -10.4672  -36.8497  -34.1032 LP  0  0  0  0  0  0  0  0  0  0  0  0  # atno 5205 bound_to 1176
   -9.2385  -36.3951  -33.1284 LP  0  0  0  0  0  0  0  0  0  0  0  0  # atno 5206 bound_to 1176
  -14.8405  -27.3144  -37.9304 LP  0  0  0  0  0  0  0  0  0  0  0  0  # atno 5215 bound_to 1247
  -14.6565  -28.8526  -37.4141 LP  0  0  0  0  0  0  0  0  0  0  0  0  # atno 5216 bound_to 1247
  -13.4364  -25.3796  -39.3068 LP  0  0  0  0  0  0  0  0  0  0  0  0  # atno 5217 bound_to 1931
  -13.3284  -24.2478  -40.4789 LP  0  0  0  0  0  0  0  0  0  0  0  0  # atno 5218 bound_to 1931
  -11.5578  -22.1977  -30.6205 LP  0  0  0  0  0  0  0  0  0  0  0  0  # atno 5224 bound_to 1070
  -12.8175  -23.2365  -30.5928 LP  0  0  0  0  0  0  0  0  0  0  0  0  # atno 5225 bound_to 1070

$$$$
(6HGV) [A] G3Q602|ligand_6hgv|sdf|1|dock8
  -GOLD-  10182016463D 1   1.00000     0.00000

 60 61  0  0  0  0  0  0  0  0  2 V2000
   -8.3169  -28.1255  -35.0237 O   0  0  0  0  0  0  0  0  0  0  0  0
   -9.2974  -27.3332  -35.5729 C   0  0  0  0  0  0  0  0  0  0  0  0
   -9.4750  -26.1281  -34.9646 C   0  0  0  0  0  0  0  0  0  0  0  0
  -10.4486  -25.3137  -35.4260 C   0  0  0  0  0  0  0  0  0  0  0  0
  -11.1993  -25.7222  -36.4830 C   0  0  0  0  0  0  0  0  0  0  0  0
  -12.2230  -24.8132  -36.8739 N   0  0  0  0  0  0  0  0  0  0  0  0
  -13.4847  -24.9768  -37.5385 C   0  0  0  0  0  0  0  0  0  0  0  0
  -13.9788  -25.9856  -37.7904 O   0  0  0  0  0  0  0  0  0  0  0  0
  -14.1633  -23.6995  -37.7063 N   0  0  0  0  0  0  0  0  0  0  0  0
  -15.4775  -23.4370  -38.3233 C   0  0  0  0  0  0  0  0  0  0  0  0
  -16.6371  -24.0110  -37.6012 C   0  0  0  0  0  0  0  0  0  0  0  0
  -17.9621  -23.7706  -38.3358 C   0  0  0  0  0  0  0  0  0  0  0  0
  -18.0144  -24.2871  -39.7405 C   0  0  0  0  0  0  0  0  0  0  0  0
  -16.7596  -23.8040  -40.3924 C   0  0  0  0  0  0  0  0  0  0  0  0
  -15.5558  -24.1900  -39.5930 C   0  0  0  0  0  0  0  0  0  0  0  0
  -14.7001  -23.9944  -40.1692 H   0  0  0  0  0  0  0  0  0  0  0  0
  -15.6117  -25.2182  -39.3872 H   0  0  0  0  0  0  0  0  0  0  0  0
  -16.6940  -24.2279  -41.3508 H   0  0  0  0  0  0  0  0  0  0  0  0
  -16.8046  -22.7582  -40.4746 H   0  0  0  0  0  0  0  0  0  0  0  0
  -18.8667  -23.9069  -40.2216 H   0  0  0  0  0  0  0  0  0  0  0  0
  -18.0591  -25.3360  -39.7263 H   0  0  0  0  0  0  0  0  0  0  0  0
  -18.7420  -24.2425  -37.8144 H   0  0  0  0  0  0  0  0  0  0  0  0
  -18.1507  -22.7391  -38.3892 H   0  0  0  0  0  0  0  0  0  0  0  0
  -16.7097  -23.5715  -36.6503 H   0  0  0  0  0  0  0  0  0  0  0  0
  -16.5072  -25.0478  -37.4986 H   0  0  0  0  0  0  0  0  0  0  0  0
  -15.6394  -22.4008  -38.3744 H   0  0  0  0  0  0  0  0  0  0  0  0
  -13.7277  -22.8494  -37.3782 H   0  0  0  0  0  0  0  0  0  0  0  0
  -12.1226  -23.8266  -36.6823 H   0  0  0  0  0  0  0  0  0  0  0  0
  -11.0704  -26.9468  -37.0822 C   0  0  0  0  0  0  0  0  0  0  0  0
  -10.0809  -27.7725  -36.6271 C   0  0  0  0  0  0  0  0  0  0  0  0
   -9.9064  -28.7161  -37.0533 H   0  0  0  0  0  0  0  0  0  0  0  0
  -11.7189  -27.2211  -37.8611 H   0  0  0  0  0  0  0  0  0  0  0  0
  -10.6305  -24.3794  -34.9827 H   0  0  0  0  0  0  0  0  0  0  0  0
   -8.8625  -25.8520  -34.1577 H   0  0  0  0  0  0  0  0  0  0  0  0
   -8.7686  -29.4155  -35.2032 C   0  0  0  0  0  0  0  0  0  0  0  0
   -8.1239  -30.3855  -34.2333 C   0  0  0  0  0  0  0  0  0  0  0  0
   -8.3866  -29.8878  -32.9675 O   0  0  0  0  0  0  0  0  0  0  0  0
   -9.3980  -29.9412  -32.7807 H   0  0  0  0  0  0  0  0  0  0  0  0
   -6.6147  -30.4957  -34.4331 C   0  0  0  0  0  0  0  0  0  0  0  0
   -6.0285  -31.5850  -33.6702 N   0  3  0  0  0  0  0  0  0  0  0  0
   -4.5830  -31.6801  -33.7795 C   0  0  0  0  0  0  0  0  0  0  0  0
   -3.8884  -30.4553  -33.2313 C   0  0  0  0  0  0  0  0  0  0  0  0
   -4.2912  -30.2155  -32.2918 H   0  0  0  0  0  0  0  0  0  0  0  0
   -4.0298  -29.6490  -33.8889 H   0  0  0  0  0  0  0  0  0  0  0  0
   -2.8614  -30.6501  -33.1325 H   0  0  0  0  0  0  0  0  0  0  0  0
   -4.1632  -31.8110  -35.2458 C   0  0  0  0  0  0  0  0  0  0  0  0
   -3.1556  -32.1022  -35.2968 H   0  0  0  0  0  0  0  0  0  0  0  0
   -4.7608  -32.5339  -35.7177 H   0  0  0  0  0  0  0  0  0  0  0  0
   -4.2852  -30.8866  -35.7286 H   0  0  0  0  0  0  0  0  0  0  0  0
   -4.1363  -32.8719  -32.9509 C   0  0  0  0  0  0  0  0  0  0  0  0
   -3.0920  -32.9656  -33.0071 H   0  0  0  0  0  0  0  0  0  0  0  0
   -4.5865  -33.7447  -33.3222 H   0  0  0  0  0  0  0  0  0  0  0  0
   -4.4215  -32.7293  -31.9505 H   0  0  0  0  0  0  0  0  0  0  0  0
   -6.4485  -32.4402  -34.0053 H   0  0  0  0  0  0  0  0  0  0  0  0
   -6.2842  -31.4403  -32.7039 H   0  0  0  0  0  0  0  0  0  0  0  0
   -6.4352  -30.6487  -35.4564 H   0  0  0  0  0  0  0  0  0  0  0  0
   -6.1826  -29.5866  -34.1341 H   0  0  0  0  0  0  0  0  0  0  0  0
   -8.5381  -31.3460  -34.3247 H   0  0  0  0  0  0  0  0  0  0  0  0
   -9.8075  -29.4464  -35.0545 H   0  0  0  0  0  0  0  0  0  0  0  0
   -8.5451  -29.7319  -36.1792 H   0  0  0  0  0  0  0  0  0  0  0  0
  1  2  1  0  0  0  0
  1 35  1  0  0  0  0
  2  3  2  0  0  0  0
  2 30  1  0  0  0  0
  3  4  1  0  0  0  0
  3 34  1  0  0  0  0
  4  5  2  0  0  0  0
  4 33  1  0  0  0  0
  5  6  1  0  0  0  0
  5 29  1  0  0  0  0
  6  7  1  0  0  0  0
  6 28  1  0  0  0  0
  7  8  2  0  0  0  0
  7  9  1  0  0  0  0
  9 10  1  0  0  0  0
  9 27  1  0  0  0  0
 10 11  1  0  0  0  0
 10 15  1  0  0  0  0
 10 26  1  0  0  0  0
 11 12  1  0  0  0  0
 11 24  1  0  0  0  0
 11 25  1  0  0  0  0
 12 13  1  0  0  0  0
 12 22  1  0  0  0  0
 12 23  1  0  0  0  0
 13 14  1  0  0  0  0
 13 20  1  0  0  0  0
 13 21  1  0  0  0  0
 14 15  1  0  0  0  0
 14 18  1  0  0  0  0
 14 19  1  0  0  0  0
 15 16  1  0  0  0  0
 15 17  1  0  0  0  0
 29 30  2  0  0  0  0
 29 32  1  0  0  0  0
 30 31  1  0  0  0  0
 35 36  1  0  0  0  0
 35 59  1  0  0  0  0
 35 60  1  0  0  0  0
 36 37  1  0  0  0  0
 36 39  1  0  0  0  0
 36 58  1  0  0  0  0
 37 38  1  0  0  0  0
 39 40  1  0  0  0  0
 39 56  1  0  0  0  0
 39 57  1  0  0  0  0
 40 41  1  0  0  0  0
 40 54  1  0  0  0  0
 40 55  1  0  0  0  0
 41 42  1  0  0  0  0
 41 46  1  0  0  0  0
 41 50  1  0  0  0  0
 42 43  1  0  0  0  0
 42 44  1  0  0  0  0
 42 45  1  0  0  0  0
 46 47  1  0  0  0  0
 46 48  1  0  0  0  0
 46 49  1  0  0  0  0
 50 51  1  0  0  0  0
 50 52  1  0  0  0  0
 50 53  1  0  0  0  0
M  CHG  1  40   1
M  END
> <CanonicalPdbName>
6HGV-G3Q_602_A

> <Gold.Version>
5.2

> <Gold.Id.Protein>
6HGV|6HGV_protein|mol2

> <Gold.Goldscore.Fitness>
78.1488

> <Gold.Goldscore.Internal.Vdw>
-34.5471

> <Gold.Goldscore.Internal.Torsion>
-4.3469

> <Gold.Goldscore.External.Vdw>
51.2336

> <Gold.Goldscore.Internal.HBond>
0.0000

> <Gold.Goldscore.External.HBond>
8.2805

> <Gold.Goldscore.Internal.Correction>
-38.3160

> <Gold.Goldscore.Hbonds>
donor molecule, donor type, donor heavy atom, donor atom, acceptor molecule, acceptor atom, score
      P1  H  1247  3847       L1     8  0.97
      L1  H     6    28       P1   854  0.50
      L1  H     9    27       P1   854  0.56

> <Gold.Goldscore.Internal.Vdw.Weighted>
-34.5471

> <Gold.Goldscore.Internal.Torsion.Weighted>
-4.3469

> <Gold.Goldscore.External.Vdw.Weighted>
70.4462

> <Gold.Goldscore.Internal.HBond.Weighted>
0.0000

> <Gold.Goldscore.External.HBond.Weighted>
8.2805

> <Gold.Goldscore.Internal.Correction.Weighted>
-38.3160

> <Gold.Protein.RotatedTorsions>
[ 3781 1176 1175 1172 ] final -111.16 input   60.00 | X-H torsion
[ 3847 1247 1246 1244 ] final -168.73 input   60.00 | X-H torsion
[ 4507 1931 1930 1928 ] final  145.91 input   60.00 | X-H torsion
[ 3677 1070 1069 1066 ] final -124.02 input   60.00 | X-H torsion
[ 3525  925  924  922 ] final  102.83 input   59.99 | X-H torsion
[ 4531 1957 1955 1953 ] final  124.24 input   60.00 | X-H torsion

> <Gold.Protein.ActiveResidues>
 PHE267  PRO268  MET310  ASP335  TRP336  MET339  TYR343  THR360  PRO361  ILE363 
 PRO371  SER374  ILE375  ASN378  PHE381  TYR383  GLN384  PHE387  LEU408  LEU417 
 MET419  LEU428  TYR466  MET469  ASN472  ASP496  VAL498  LEU499  MET503  HIS524 
 TRP525 

> <Gold.Protein.RotatedAtoms>
   -2.2550  -30.1231  -30.5623 H   0  0  0  0  0  0  0  0  0  0  0  0  # atno 3525 bound_to 925 
  -11.4144  -23.5349  -31.4496 H   0  0  0  0  0  0  0  0  0  0  0  0  # atno 3677 bound_to 1070
   -9.5597  -36.3375  -33.8623 H   0  0  0  0  0  0  0  0  0  0  0  0  # atno 3781 bound_to 1176
  -14.8174  -27.3356  -37.9340 H   0  0  0  0  0  0  0  0  0  0  0  0  # atno 3847 bound_to 1247
  -12.5663  -23.7916  -39.7326 H   0  0  0  0  0  0  0  0  0  0  0  0  # atno 4507 bound_to 1931
   -2.3117  -34.0581  -36.8196 H   0  0  0  0  0  0  0  0  0  0  0  0  # atno 4531 bound_to 1957
   -9.7232  -36.9974  -32.3838 LP  0  0  0  0  0  0  0  0  0  0  0  0  # atno 5205 bound_to 1176
  -10.8312  -37.3020  -33.5441 LP  0  0  0  0  0  0  0  0  0  0  0  0  # atno 5206 bound_to 1176
  -14.6800  -28.8665  -37.3996 LP  0  0  0  0  0  0  0  0  0  0  0  0  # atno 5215 bound_to 1247
  -16.0697  -28.0402  -37.1702 LP  0  0  0  0  0  0  0  0  0  0  0  0  # atno 5216 bound_to 1247
  -12.9755  -25.1002  -38.8562 LP  0  0  0  0  0  0  0  0  0  0  0  0  # atno 5217 bound_to 1931
  -13.6565  -24.8479  -40.3188 LP  0  0  0  0  0  0  0  0  0  0  0  0  # atno 5218 bound_to 1931
  -11.6343  -22.1813  -30.5736 LP  0  0  0  0  0  0  0  0  0  0  0  0  # atno 5224 bound_to 1070
  -12.8091  -23.3136  -30.6409 LP  0  0  0  0  0  0  0  0  0  0  0  0  # atno 5225 bound_to 1070

$$$$
(6HGV) [A] G3Q602|ligand_6hgv|sdf|1|dock7
  -GOLD-  10182016453D 1   1.00000     0.00000

 60 61  0  0  0  0  0  0  0  0  2 V2000
   -7.6531  -27.1352  -34.4742 O   0  0  0  0  0  0  0  0  0  0  0  0
   -8.8614  -26.7371  -34.9960 C   0  0  0  0  0  0  0  0  0  0  0  0
   -9.4335  -25.6672  -34.3781 C   0  0  0  0  0  0  0  0  0  0  0  0
  -10.6410  -25.2456  -34.8122 C   0  0  0  0  0  0  0  0  0  0  0  0
  -11.2272  -25.8946  -35.8527 C   0  0  0  0  0  0  0  0  0  0  0  0
  -12.5129  -25.4016  -36.2146 N   0  0  0  0  0  0  0  0  0  0  0  0
  -13.5052  -25.8354  -37.1568 C   0  0  0  0  0  0  0  0  0  0  0  0
  -13.4700  -26.8178  -37.7559 O   0  0  0  0  0  0  0  0  0  0  0  0
  -14.6682  -24.9596  -37.1405 N   0  0  0  0  0  0  0  0  0  0  0  0
  -15.9027  -25.0647  -37.9417 C   0  0  0  0  0  0  0  0  0  0  0  0
  -15.9319  -24.2283  -39.1644 C   0  0  0  0  0  0  0  0  0  0  0  0
  -17.2709  -24.3229  -39.9070 C   0  0  0  0  0  0  0  0  0  0  0  0
  -18.4765  -23.9634  -39.0947 C   0  0  0  0  0  0  0  0  0  0  0  0
  -18.3365  -24.7190  -37.8131 C   0  0  0  0  0  0  0  0  0  0  0  0
  -17.0096  -24.4542  -37.1754 C   0  0  0  0  0  0  0  0  0  0  0  0
  -17.0246  -24.8529  -36.2042 H   0  0  0  0  0  0  0  0  0  0  0  0
  -16.8689  -23.4149  -37.1250 H   0  0  0  0  0  0  0  0  0  0  0  0
  -19.1038  -24.4207  -37.1614 H   0  0  0  0  0  0  0  0  0  0  0  0
  -18.4289  -25.7451  -38.0160 H   0  0  0  0  0  0  0  0  0  0  0  0
  -19.3447  -24.2462  -39.6130 H   0  0  0  0  0  0  0  0  0  0  0  0
  -18.4901  -22.9268  -38.9284 H   0  0  0  0  0  0  0  0  0  0  0  0
  -17.2607  -23.6724  -40.7312 H   0  0  0  0  0  0  0  0  0  0  0  0
  -17.4175  -25.3077  -40.2402 H   0  0  0  0  0  0  0  0  0  0  0  0
  -15.1747  -24.5416  -39.8209 H   0  0  0  0  0  0  0  0  0  0  0  0
  -15.7761  -23.2230  -38.9045 H   0  0  0  0  0  0  0  0  0  0  0  0
  -16.0329  -26.0583  -38.2552 H   0  0  0  0  0  0  0  0  0  0  0  0
  -14.6906  -24.1613  -36.5222 H   0  0  0  0  0  0  0  0  0  0  0  0
  -12.8831  -24.5772  -35.7634 H   0  0  0  0  0  0  0  0  0  0  0  0
  -10.6937  -26.9998  -36.4604 C   0  0  0  0  0  0  0  0  0  0  0  0
   -9.4677  -27.4265  -36.0330 C   0  0  0  0  0  0  0  0  0  0  0  0
   -8.9852  -28.2516  -36.4675 H   0  0  0  0  0  0  0  0  0  0  0  0
  -11.2244  -27.4863  -37.2247 H   0  0  0  0  0  0  0  0  0  0  0  0
  -11.1266  -24.4316  -34.3604 H   0  0  0  0  0  0  0  0  0  0  0  0
   -8.9365  -25.1914  -33.5849 H   0  0  0  0  0  0  0  0  0  0  0  0
   -7.6296  -28.5022  -34.6506 C   0  0  0  0  0  0  0  0  0  0  0  0
   -6.3859  -29.1325  -34.0563 C   0  0  0  0  0  0  0  0  0  0  0  0
   -5.3141  -28.4433  -34.5997 O   0  0  0  0  0  0  0  0  0  0  0  0
   -4.5201  -28.4714  -33.9443 H   0  0  0  0  0  0  0  0  0  0  0  0
   -6.2622  -30.6152  -34.3970 C   0  0  0  0  0  0  0  0  0  0  0  0
   -5.1147  -31.2404  -33.7608 N   0  3  0  0  0  0  0  0  0  0  0  0
   -4.8668  -32.6070  -34.1869 C   0  0  0  0  0  0  0  0  0  0  0  0
   -4.5535  -32.6956  -35.6625 C   0  0  0  0  0  0  0  0  0  0  0  0
   -3.8724  -31.9397  -35.9217 H   0  0  0  0  0  0  0  0  0  0  0  0
   -5.4376  -32.5750  -36.2159 H   0  0  0  0  0  0  0  0  0  0  0  0
   -4.1328  -33.6338  -35.8752 H   0  0  0  0  0  0  0  0  0  0  0  0
   -6.1014  -33.4779  -33.9410 C   0  0  0  0  0  0  0  0  0  0  0  0
   -6.4341  -33.3430  -32.9543 H   0  0  0  0  0  0  0  0  0  0  0  0
   -6.8635  -33.2013  -34.6083 H   0  0  0  0  0  0  0  0  0  0  0  0
   -5.8535  -34.4871  -34.0918 H   0  0  0  0  0  0  0  0  0  0  0  0
   -3.6528  -33.1128  -33.4275 C   0  0  0  0  0  0  0  0  0  0  0  0
   -3.8340  -33.0490  -32.3953 H   0  0  0  0  0  0  0  0  0  0  0  0
   -2.8171  -32.5264  -33.6731 H   0  0  0  0  0  0  0  0  0  0  0  0
   -3.4679  -34.1127  -33.6892 H   0  0  0  0  0  0  0  0  0  0  0  0
   -5.2830  -31.2235  -32.7651 H   0  0  0  0  0  0  0  0  0  0  0  0
   -4.3098  -30.6694  -33.9760 H   0  0  0  0  0  0  0  0  0  0  0  0
   -7.1417  -31.0934  -34.0802 H   0  0  0  0  0  0  0  0  0  0  0  0
   -6.1737  -30.7002  -35.4398 H   0  0  0  0  0  0  0  0  0  0  0  0
   -6.3721  -29.0335  -33.0111 H   0  0  0  0  0  0  0  0  0  0  0  0
   -8.4676  -28.9298  -34.1844 H   0  0  0  0  0  0  0  0  0  0  0  0
   -7.6495  -28.7230  -35.6770 H   0  0  0  0  0  0  0  0  0  0  0  0
  1  2  1  0  0  0  0
  1 35  1  0  0  0  0
  2  3  2  0  0  0  0
  2 30  1  0  0  0  0
  3  4  1  0  0  0  0
  3 34  1  0  0  0  0
  4  5  2  0  0  0  0
  4 33  1  0  0  0  0
  5  6  1  0  0  0  0
  5 29  1  0  0  0  0
  6  7  1  0  0  0  0
  6 28  1  0  0  0  0
  7  8  2  0  0  0  0
  7  9  1  0  0  0  0
  9 10  1  0  0  0  0
  9 27  1  0  0  0  0
 10 11  1  0  0  0  0
 10 15  1  0  0  0  0
 10 26  1  0  0  0  0
 11 12  1  0  0  0  0
 11 24  1  0  0  0  0
 11 25  1  0  0  0  0
 12 13  1  0  0  0  0
 12 22  1  0  0  0  0
 12 23  1  0  0  0  0
 13 14  1  0  0  0  0
 13 20  1  0  0  0  0
 13 21  1  0  0  0  0
 14 15  1  0  0  0  0
 14 18  1  0  0  0  0
 14 19  1  0  0  0  0
 15 16  1  0  0  0  0
 15 17  1  0  0  0  0
 29 30  2  0  0  0  0
 29 32  1  0  0  0  0
 30 31  1  0  0  0  0
 35 36  1  0  0  0  0
 35 59  1  0  0  0  0
 35 60  1  0  0  0  0
 36 37  1  0  0  0  0
 36 39  1  0  0  0  0
 36 58  1  0  0  0  0
 37 38  1  0  0  0  0
 39 40  1  0  0  0  0
 39 56  1  0  0  0  0
 39 57  1  0  0  0  0
 40 41  1  0  0  0  0
 40 54  1  0  0  0  0
 40 55  1  0  0  0  0
 41 42  1  0  0  0  0
 41 46  1  0  0  0  0
 41 50  1  0  0  0  0
 42 43  1  0  0  0  0
 42 44  1  0  0  0  0
 42 45  1  0  0  0  0
 46 47  1  0  0  0  0
 46 48  1  0  0  0  0
 46 49  1  0  0  0  0
 50 51  1  0  0  0  0
 50 52  1  0  0  0  0
 50 53  1  0  0  0  0
M  CHG  1  40   1
M  END
> <CanonicalPdbName>
6HGV-G3Q_602_A

> <Gold.Version>
5.2

> <Gold.Id.Protein>
6HGV|6HGV_protein|mol2

> <Gold.Goldscore.Fitness>
75.0559

> <Gold.Goldscore.Internal.Vdw>
-48.3258

> <Gold.Goldscore.Internal.Torsion>
-3.6103

> <Gold.Goldscore.External.Vdw>
58.6380

> <Gold.Goldscore.Internal.HBond>
0.0000

> <Gold.Goldscore.External.HBond>
8.0234

> <Gold.Goldscore.Internal.Correction>
-38.3413

> <Gold.Goldscore.Hbonds>
donor molecule, donor type, donor heavy atom, donor atom, acceptor molecule, acceptor atom, score
      L1  H     6    28       P1   853  0.72
      L1  H     9    27       P1   853  0.62

> <Gold.Goldscore.Internal.Vdw.Weighted>
-48.3258

> <Gold.Goldscore.Internal.Torsion.Weighted>
-3.6103

> <Gold.Goldscore.External.Vdw.Weighted>
80.6273

> <Gold.Goldscore.Internal.HBond.Weighted>
0.0000

> <Gold.Goldscore.External.HBond.Weighted>
8.0234

> <Gold.Goldscore.Internal.Correction.Weighted>
-38.3413

> <Gold.Protein.RotatedTorsions>
[ 3781 1176 1175 1172 ] final -136.05 input   60.00 | X-H torsion
[ 3847 1247 1246 1244 ] final  -47.92 input   60.00 | X-H torsion
[ 4507 1931 1930 1928 ] final  101.31 input   60.00 | X-H torsion
[ 3677 1070 1069 1066 ] final -113.88 input   60.00 | X-H torsion
[ 3525  925  924  922 ] final   27.11 input   59.99 | X-H torsion
[ 4531 1957 1955 1953 ] final  150.57 input   60.00 | X-H torsion

> <Gold.Protein.ActiveResidues>
 PHE267  PRO268  MET310  ASP335  TRP336  MET339  TYR343  THR360  PRO361  ILE363 
 PRO371  SER374  ILE375  ASN378  PHE381  TYR383  GLN384  PHE387  LEU408  LEU417 
 MET419  LEU428  TYR466  MET469  ASN472  ASP496  VAL498  LEU499  MET503  HIS524 
 TRP525 

> <Gold.Protein.RotatedAtoms>
   -3.2851  -29.6555  -30.7641 H   0  0  0  0  0  0  0  0  0  0  0  0  # atno 3525 bound_to 925 
  -11.5414  -23.6411  -31.4477 H   0  0  0  0  0  0  0  0  0  0  0  0  # atno 3677 bound_to 1070
   -9.3366  -36.3143  -33.5269 H   0  0  0  0  0  0  0  0  0  0  0  0  # atno 3781 bound_to 1176
  -16.0631  -28.0538  -37.1703 H   0  0  0  0  0  0  0  0  0  0  0  0  # atno 3847 bound_to 1247
  -12.4355  -24.1198  -39.1162 H   0  0  0  0  0  0  0  0  0  0  0  0  # atno 4507 bound_to 1931
   -1.8943  -34.0205  -36.8983 H   0  0  0  0  0  0  0  0  0  0  0  0  # atno 4531 bound_to 1957
  -10.0618  -37.2219  -32.3874 LP  0  0  0  0  0  0  0  0  0  0  0  0  # atno 5205 bound_to 1176
  -10.7172  -37.1008  -33.8782 LP  0  0  0  0  0  0  0  0  0  0  0  0  # atno 5206 bound_to 1176
  -14.8254  -27.3229  -37.9330 LP  0  0  0  0  0  0  0  0  0  0  0  0  # atno 5215 bound_to 1247
  -14.6697  -28.8606  -37.4059 LP  0  0  0  0  0  0  0  0  0  0  0  0  # atno 5216 bound_to 1247
  -13.4440  -25.3807  -39.3184 LP  0  0  0  0  0  0  0  0  0  0  0  0  # atno 5217 bound_to 1931
  -13.3197  -24.2369  -40.4772 LP  0  0  0  0  0  0  0  0  0  0  0  0  # atno 5218 bound_to 1931
  -11.4972  -22.2170  -30.6614 LP  0  0  0  0  0  0  0  0  0  0  0  0  # atno 5224 bound_to 1070
  -12.8183  -23.1710  -30.5551 LP  0  0  0  0  0  0  0  0  0  0  0  0  # atno 5225 bound_to 1070

$$$$
(6HGV) [A] G3Q602|ligand_6hgv|sdf|1|dock5
  -GOLD-  10182016453D 1   1.00000     0.00000

 60 61  0  0  0  0  0  0  0  0  2 V2000
   -7.7083  -27.8066  -34.6513 O   0  0  0  0  0  0  0  0  0  0  0  0
   -8.8742  -27.2605  -35.1342 C   0  0  0  0  0  0  0  0  0  0  0  0
   -9.2552  -26.0952  -34.5421 C   0  0  0  0  0  0  0  0  0  0  0  0
  -10.4122  -25.5223  -34.9387 C   0  0  0  0  0  0  0  0  0  0  0  0
  -11.1391  -26.1221  -35.9182 C   0  0  0  0  0  0  0  0  0  0  0  0
  -12.3595  -25.4644  -36.2426 N   0  0  0  0  0  0  0  0  0  0  0  0
  -13.4062  -25.7388  -37.1858 C   0  0  0  0  0  0  0  0  0  0  0  0
  -13.4957  -26.6942  -37.8218 O   0  0  0  0  0  0  0  0  0  0  0  0
  -14.4549  -24.7310  -37.1197 N   0  0  0  0  0  0  0  0  0  0  0  0
  -15.7009  -24.6557  -37.9061 C   0  0  0  0  0  0  0  0  0  0  0  0
  -16.1250  -23.2869  -38.2829 C   0  0  0  0  0  0  0  0  0  0  0  0
  -17.4658  -23.2732  -39.0281 C   0  0  0  0  0  0  0  0  0  0  0  0
  -18.6084  -23.9056  -38.2952 C   0  0  0  0  0  0  0  0  0  0  0  0
  -18.0946  -25.2226  -37.8110 C   0  0  0  0  0  0  0  0  0  0  0  0
  -16.8273  -25.0525  -37.0348 C   0  0  0  0  0  0  0  0  0  0  0  0
  -16.6024  -25.9646  -36.5657 H   0  0  0  0  0  0  0  0  0  0  0  0
  -16.9833  -24.3131  -36.3058 H   0  0  0  0  0  0  0  0  0  0  0  0
  -18.8241  -25.6633  -37.1978 H   0  0  0  0  0  0  0  0  0  0  0  0
  -17.9161  -25.8398  -38.6415 H   0  0  0  0  0  0  0  0  0  0  0  0
  -19.4194  -24.0286  -38.9506 H   0  0  0  0  0  0  0  0  0  0  0  0
  -18.8951  -23.2890  -37.4951 H   0  0  0  0  0  0  0  0  0  0  0  0
  -17.7479  -22.2807  -39.2228 H   0  0  0  0  0  0  0  0  0  0  0  0
  -17.3676  -23.7934  -39.9349 H   0  0  0  0  0  0  0  0  0  0  0  0
  -15.4014  -22.8566  -38.9104 H   0  0  0  0  0  0  0  0  0  0  0  0
  -16.2299  -22.7022  -37.4171 H   0  0  0  0  0  0  0  0  0  0  0  0
  -15.5821  -25.1898  -38.8022 H   0  0  0  0  0  0  0  0  0  0  0  0
  -14.3746  -23.9605  -36.4716 H   0  0  0  0  0  0  0  0  0  0  0  0
  -12.6230  -24.6198  -35.7555 H   0  0  0  0  0  0  0  0  0  0  0  0
  -10.8006  -27.3163  -36.4967 C   0  0  0  0  0  0  0  0  0  0  0  0
   -9.6263  -27.8971  -36.1074 C   0  0  0  0  0  0  0  0  0  0  0  0
   -9.2894  -28.8001  -36.5241 H   0  0  0  0  0  0  0  0  0  0  0  0
  -11.4349  -27.7522  -37.2110 H   0  0  0  0  0  0  0  0  0  0  0  0
  -10.7529  -24.6292  -34.5041 H   0  0  0  0  0  0  0  0  0  0  0  0
   -8.6542  -25.6639  -33.7969 H   0  0  0  0  0  0  0  0  0  0  0  0
   -7.8856  -29.1687  -34.7685 C   0  0  0  0  0  0  0  0  0  0  0  0
   -6.7423  -29.9479  -34.1497 C   0  0  0  0  0  0  0  0  0  0  0  0
   -5.5948  -29.2233  -34.4274 O   0  0  0  0  0  0  0  0  0  0  0  0
   -4.7879  -29.6685  -33.9675 H   0  0  0  0  0  0  0  0  0  0  0  0
   -6.6097  -31.3527  -34.7317 C   0  0  0  0  0  0  0  0  0  0  0  0
   -7.7813  -32.1747  -34.4788 N   0  3  0  0  0  0  0  0  0  0  0  0
   -7.6741  -33.5358  -34.9754 C   0  0  0  0  0  0  0  0  0  0  0  0
   -8.8905  -34.3644  -34.6333 C   0  0  0  0  0  0  0  0  0  0  0  0
   -8.9894  -34.4267  -33.5899 H   0  0  0  0  0  0  0  0  0  0  0  0
   -8.7803  -35.3292  -35.0327 H   0  0  0  0  0  0  0  0  0  0  0  0
   -9.7470  -33.9131  -35.0397 H   0  0  0  0  0  0  0  0  0  0  0  0
   -6.4661  -34.2405  -34.3530 C   0  0  0  0  0  0  0  0  0  0  0  0
   -6.4335  -34.0357  -33.3236 H   0  0  0  0  0  0  0  0  0  0  0  0
   -6.5506  -35.2765  -34.5013 H   0  0  0  0  0  0  0  0  0  0  0  0
   -5.5856  -33.8925  -34.8071 H   0  0  0  0  0  0  0  0  0  0  0  0
   -7.5753  -33.4668  -36.4893 C   0  0  0  0  0  0  0  0  0  0  0  0
   -8.2774  -32.7769  -36.8549 H   0  0  0  0  0  0  0  0  0  0  0  0
   -7.7712  -34.4146  -36.8964 H   0  0  0  0  0  0  0  0  0  0  0  0
   -6.6089  -33.1611  -36.7634 H   0  0  0  0  0  0  0  0  0  0  0  0
   -8.5653  -31.7160  -34.9204 H   0  0  0  0  0  0  0  0  0  0  0  0
   -7.9206  -32.1913  -33.4786 H   0  0  0  0  0  0  0  0  0  0  0  0
   -6.4640  -31.2602  -35.7675 H   0  0  0  0  0  0  0  0  0  0  0  0
   -5.7660  -31.8030  -34.2984 H   0  0  0  0  0  0  0  0  0  0  0  0
   -6.8594  -30.0331  -33.1097 H   0  0  0  0  0  0  0  0  0  0  0  0
   -8.7731  -29.4492  -34.2826 H   0  0  0  0  0  0  0  0  0  0  0  0
   -7.9459  -29.4277  -35.7843 H   0  0  0  0  0  0  0  0  0  0  0  0
  1  2  1  0  0  0  0
  1 35  1  0  0  0  0
  2  3  2  0  0  0  0
  2 30  1  0  0  0  0
  3  4  1  0  0  0  0
  3 34  1  0  0  0  0
  4  5  2  0  0  0  0
  4 33  1  0  0  0  0
  5  6  1  0  0  0  0
  5 29  1  0  0  0  0
  6  7  1  0  0  0  0
  6 28  1  0  0  0  0
  7  8  2  0  0  0  0
  7  9  1  0  0  0  0
  9 10  1  0  0  0  0
  9 27  1  0  0  0  0
 10 11  1  0  0  0  0
 10 15  1  0  0  0  0
 10 26  1  0  0  0  0
 11 12  1  0  0  0  0
 11 24  1  0  0  0  0
 11 25  1  0  0  0  0
 12 13  1  0  0  0  0
 12 22  1  0  0  0  0
 12 23  1  0  0  0  0
 13 14  1  0  0  0  0
 13 20  1  0  0  0  0
 13 21  1  0  0  0  0
 14 15  1  0  0  0  0
 14 18  1  0  0  0  0
 14 19  1  0  0  0  0
 15 16  1  0  0  0  0
 15 17  1  0  0  0  0
 29 30  2  0  0  0  0
 29 32  1  0  0  0  0
 30 31  1  0  0  0  0
 35 36  1  0  0  0  0
 35 59  1  0  0  0  0
 35 60  1  0  0  0  0
 36 37  1  0  0  0  0
 36 39  1  0  0  0  0
 36 58  1  0  0  0  0
 37 38  1  0  0  0  0
 39 40  1  0  0  0  0
 39 56  1  0  0  0  0
 39 57  1  0  0  0  0
 40 41  1  0  0  0  0
 40 54  1  0  0  0  0
 40 55  1  0  0  0  0
 41 42  1  0  0  0  0
 41 46  1  0  0  0  0
 41 50  1  0  0  0  0
 42 43  1  0  0  0  0
 42 44  1  0  0  0  0
 42 45  1  0  0  0  0
 46 47  1  0  0  0  0
 46 48  1  0  0  0  0
 46 49  1  0  0  0  0
 50 51  1  0  0  0  0
 50 52  1  0  0  0  0
 50 53  1  0  0  0  0
M  CHG  1  40   1
M  END
> <CanonicalPdbName>
6HGV-G3Q_602_A

> <Gold.Version>
5.2

> <Gold.Id.Protein>
6HGV|6HGV_protein|mol2

> <Gold.Goldscore.Fitness>
73.7313

> <Gold.Goldscore.Internal.Vdw>
-47.7985

> <Gold.Goldscore.Internal.Torsion>
-3.1902

> <Gold.Goldscore.External.Vdw>
56.2912

> <Gold.Goldscore.Internal.HBond>
0.0000

> <Gold.Goldscore.External.HBond>
8.4647

> <Gold.Goldscore.Internal.Correction>
-38.8550

> <Gold.Goldscore.Hbonds>
donor molecule, donor type, donor heavy atom, donor atom, acceptor molecule, acceptor atom, score
      P1  H  1247  3847       L1     8  0.18
      L1  H     6    28       P1   853  0.41
      L1  H     9    27       P1   853  0.94

> <Gold.Goldscore.Internal.Vdw.Weighted>
-47.7985

> <Gold.Goldscore.Internal.Torsion.Weighted>
-3.1902

> <Gold.Goldscore.External.Vdw.Weighted>
77.4003

> <Gold.Goldscore.Internal.HBond.Weighted>
0.0000

> <Gold.Goldscore.External.HBond.Weighted>
8.4647

> <Gold.Goldscore.Internal.Correction.Weighted>
-38.8550

> <Gold.Protein.RotatedTorsions>
[ 3781 1176 1175 1172 ] final  142.99 input   60.00 | X-H torsion
[ 3847 1247 1246 1244 ] final  155.40 input   60.00 | X-H torsion
[ 4507 1931 1930 1928 ] final  113.41 input   60.00 | X-H torsion
[ 3677 1070 1069 1066 ] final -105.69 input   60.00 | X-H torsion
[ 3525  925  924  922 ] final   16.29 input   59.99 | X-H torsion
[ 4531 1957 1955 1953 ] final   39.99 input   60.00 | X-H torsion

> <Gold.Protein.ActiveResidues>
 PHE267  PRO268  MET310  ASP335  TRP336  MET339  TYR343  THR360  PRO361  ILE363 
 PRO371  SER374  ILE375  ASN378  PHE381  TYR383  GLN384  PHE387  LEU408  LEU417 
 MET419  LEU428  TYR466  MET469  ASN472  ASP496  VAL498  LEU499  MET503  HIS524 
 TRP525 

> <Gold.Protein.RotatedAtoms>
   -3.4239  -29.6038  -30.6679 H   0  0  0  0  0  0  0  0  0  0  0  0  # atno 3525 bound_to 925 
  -11.6534  -23.7125  -31.4333 H   0  0  0  0  0  0  0  0  0  0  0  0  # atno 3677 bound_to 1070
   -9.5551  -36.8589  -32.4623 H   0  0  0  0  0  0  0  0  0  0  0  0  # atno 3781 bound_to 1176
  -14.4210  -27.7542  -37.9294 H   0  0  0  0  0  0  0  0  0  0  0  0  # atno 3847 bound_to 1247
  -12.4345  -23.9926  -39.2670 H   0  0  0  0  0  0  0  0  0  0  0  0  # atno 4507 bound_to 1931
   -3.0980  -33.0929  -36.6534 H   0  0  0  0  0  0  0  0  0  0  0  0  # atno 4531 bound_to 1957
  -10.8305  -37.3830  -33.3265 LP  0  0  0  0  0  0  0  0  0  0  0  0  # atno 5205 bound_to 1176
   -9.7285  -36.3913  -34.0112 LP  0  0  0  0  0  0  0  0  0  0  0  0  # atno 5206 bound_to 1176
  -15.2010  -28.9575  -37.1603 LP  0  0  0  0  0  0  0  0  0  0  0  0  # atno 5215 bound_to 1247
  -15.9478  -27.5277  -37.4141 LP  0  0  0  0  0  0  0  0  0  0  0  0  # atno 5216 bound_to 1247
  -13.3283  -25.3482  -39.1602 LP  0  0  0  0  0  0  0  0  0  0  0  0  # atno 5217 bound_to 1931
  -13.4365  -24.3976  -40.4836 LP  0  0  0  0  0  0  0  0  0  0  0  0  # atno 5218 bound_to 1931
  -11.3967  -22.2640  -30.7375 LP  0  0  0  0  0  0  0  0  0  0  0  0  # atno 5224 bound_to 1070
  -12.8060  -23.0520  -30.4934 LP  0  0  0  0  0  0  0  0  0  0  0  0  # atno 5225 bound_to 1070

$$$$
EZ_12|Lisa_paper2_min|sdf|1|dock1
  -GOLD-  10182016463D 1   1.00000     0.00000

 63 66  0  0  0  0  0  0  0  0  1 V2000
   -4.0767  -32.9208  -34.3580 C   0  0  0  0  0  0  0  0  0  0  0  0
   -5.2108  -33.7251  -34.2673 C   0  0  0  0  0  0  0  0  0  0  0  0
   -4.1933  -31.5324  -34.4724 C   0  0  0  0  0  0  0  0  0  0  0  0
   -6.4957  -33.1712  -34.2875 C   0  0  0  0  0  0  0  0  0  0  0  0
  -11.7389  -27.1058  -37.2095 C   0  0  0  0  0  0  0  0  0  0  0  0
  -16.4310  -24.4952  -39.2960 C   0  0  0  0  0  0  0  0  0  0  0  0
  -10.5602  -27.8427  -37.0939 C   0  0  0  0  0  0  0  0  0  0  0  0
  -17.6144  -24.3179  -40.0127 C   0  0  0  0  0  0  0  0  0  0  0  0
   -9.9098  -26.5037  -35.1909 C   0  0  0  0  0  0  0  0  0  0  0  0
  -17.6175  -24.0768  -37.2334 C   0  0  0  0  0  0  0  0  0  0  0  0
  -11.0884  -25.7667  -35.3066 C   0  0  0  0  0  0  0  0  0  0  0  0
   -5.4772  -30.9592  -34.4945 C   0  0  0  0  0  0  0  0  0  0  0  0
   -6.6037  -31.7776  -34.4025 C   0  0  0  0  0  0  0  0  0  0  0  0
  -16.4325  -24.3747  -37.9063 C   0  0  0  0  0  0  0  0  0  0  0  0
  -12.0029  -26.0678  -36.3159 C   0  0  0  0  0  0  0  0  0  0  0  0
   -9.6457  -27.5417  -36.0846 C   0  0  0  0  0  0  0  0  0  0  0  0
  -18.7993  -24.0201  -39.3398 C   0  0  0  0  0  0  0  0  0  0  0  0
  -18.8009  -23.8995  -37.9501 C   0  0  0  0  0  0  0  0  0  0  0  0
   -7.1453  -29.6404  -34.5715 C   0  0  0  0  0  0  0  0  0  0  0  0
   -9.0431  -31.2378  -34.3977 C   0  0  0  0  0  0  0  0  0  0  0  0
  -14.2179  -25.4993  -37.4067 C   0  0  0  0  0  0  0  0  0  0  0  0
  -11.3446  -24.6604  -34.3354 C   0  0  0  0  0  0  0  0  0  0  0  0
  -10.4981  -34.5940  -34.3588 C   0  0  0  0  0  0  0  0  0  0  0  0
  -11.4224  -32.4388  -33.4586 C   0  0  0  0  0  0  0  0  0  0  0  0
  -10.9476  -32.6671  -35.9143 C   0  0  0  0  0  0  0  0  0  0  0  0
   -7.9435  -28.3959  -34.6603 C   0  0  0  0  0  0  0  0  0  0  0  0
  -10.5114  -33.0733  -34.5074 C   0  0  0  0  0  0  0  0  0  0  0  0
   -5.8337  -29.6417  -34.5985 N   0  0  0  0  0  0  0  0  0  0  0  0
   -7.6848  -30.9057  -34.4536 N   0  0  0  0  0  0  0  0  0  0  0  0
  -15.2320  -24.5552  -37.1795 N   0  0  0  0  0  0  0  0  0  0  0  0
  -13.1880  -25.3400  -36.4494 N   0  0  0  0  0  0  0  0  0  0  0  0
   -9.9097  -30.3809  -34.4519 O   0  0  0  0  0  0  0  0  0  0  0  0
  -14.2185  -26.3399  -38.3003 O   0  0  0  0  0  0  0  0  0  0  0  0
   -8.4896  -28.2652  -35.9708 O   0  0  0  0  0  0  0  0  0  0  0  0
   -9.1869  -32.5822  -34.2814 O   0  0  0  0  0  0  0  0  0  0  0  0
  -20.2317  -23.8090  -40.2843 Cl  0  0  0  0  0  0  0  0  0  0  0  0
  -20.2363  -23.5299  -37.0602 Cl  0  0  0  0  0  0  0  0  0  0  0  0
   -3.0903  -33.3762  -34.3400 H   0  0  0  0  0  0  0  0  0  0  0  0
   -5.0968  -34.8027  -34.1796 H   0  0  0  0  0  0  0  0  0  0  0  0
   -3.3052  -30.9121  -34.5430 H   0  0  0  0  0  0  0  0  0  0  0  0
   -7.3616  -33.8186  -34.2156 H   0  0  0  0  0  0  0  0  0  0  0  0
  -12.4437  -27.3489  -38.0009 H   0  0  0  0  0  0  0  0  0  0  0  0
  -15.5133  -24.7286  -39.8299 H   0  0  0  0  0  0  0  0  0  0  0  0
  -10.3605  -28.6504  -37.7927 H   0  0  0  0  0  0  0  0  0  0  0  0
  -17.5948  -24.4171  -41.0952 H   0  0  0  0  0  0  0  0  0  0  0  0
   -9.1947  -26.2712  -34.4055 H   0  0  0  0  0  0  0  0  0  0  0  0
  -17.6121  -23.9827  -36.1493 H   0  0  0  0  0  0  0  0  0  0  0  0
  -12.2210  -24.8921  -33.7196 H   0  0  0  0  0  0  0  0  0  0  0  0
  -10.4829  -24.5066  -33.6747 H   0  0  0  0  0  0  0  0  0  0  0  0
  -11.5227  -23.7112  -34.8552 H   0  0  0  0  0  0  0  0  0  0  0  0
  -10.2071  -34.8836  -33.3428 H   0  0  0  0  0  0  0  0  0  0  0  0
  -11.4787  -35.0293  -34.5771 H   0  0  0  0  0  0  0  0  0  0  0  0
   -9.7609  -35.0463  -35.0322 H   0  0  0  0  0  0  0  0  0  0  0  0
  -12.2873  -33.0801  -33.2537 H   0  0  0  0  0  0  0  0  0  0  0  0
  -11.8240  -31.4840  -33.8169 H   0  0  0  0  0  0  0  0  0  0  0  0
  -10.8922  -32.2606  -32.5175 H   0  0  0  0  0  0  0  0  0  0  0  0
  -11.9203  -33.1060  -36.1642 H   0  0  0  0  0  0  0  0  0  0  0  0
  -11.0231  -31.5795  -36.0148 H   0  0  0  0  0  0  0  0  0  0  0  0
  -10.2393  -33.0378  -36.6641 H   0  0  0  0  0  0  0  0  0  0  0  0
   -8.7768  -28.3896  -33.9386 H   0  0  0  0  0  0  0  0  0  0  0  0
   -7.3311  -27.5037  -34.4503 H   0  0  0  0  0  0  0  0  0  0  0  0
  -15.0856  -23.9234  -36.3963 H   0  0  0  0  0  0  0  0  0  0  0  0
  -13.3418  -24.5897  -35.7687 H   0  0  0  0  0  0  0  0  0  0  0  0
  1  2  2  0  0  0  0
  1  3  1  0  0  0  0
  2  4  1  0  0  0  0
  3 12  2  0  0  0  0
  4 13  2  0  0  0  0
  5  7  1  0  0  0  0
  5 15  2  0  0  0  0
  6  8  1  0  0  0  0
  6 14  2  0  0  0  0
  7 16  2  0  0  0  0
  8 17  2  0  0  0  0
  9 11  2  0  0  0  0
  9 16  1  0  0  0  0
 10 14  1  0  0  0  0
 10 18  2  0  0  0  0
 11 15  1  0  0  0  0
 11 22  1  0  0  0  0
 12 13  1  0  0  0  0
 12 28  1  0  0  0  0
 13 29  1  0  0  0  0
 14 30  1  0  0  0  0
 15 31  1  0  0  0  0
 16 34  1  0  0  0  0
 17 18  1  0  0  0  0
 17 36  1  0  0  0  0
 18 37  1  0  0  0  0
 19 26  1  0  0  0  0
 19 28  2  0  0  0  0
 19 29  1  0  0  0  0
 20 29  1  0  0  0  0
 20 32  2  0  0  0  0
 20 35  1  0  0  0  0
 21 30  1  0  0  0  0
 21 31  1  0  0  0  0
 21 33  2  0  0  0  0
 23 27  1  0  0  0  0
 24 27  1  0  0  0  0
 25 27  1  0  0  0  0
 26 34  1  0  0  0  0
 27 35  1  0  0  0  0
  1 38  1  0  0  0  0
  2 39  1  0  0  0  0
  3 40  1  0  0  0  0
  4 41  1  0  0  0  0
  5 42  1  0  0  0  0
  6 43  1  0  0  0  0
  7 44  1  0  0  0  0
  8 45  1  0  0  0  0
  9 46  1  0  0  0  0
 10 47  1  0  0  0  0
 22 48  1  0  0  0  0
 22 49  1  0  0  0  0
 22 50  1  0  0  0  0
 23 51  1  0  0  0  0
 23 52  1  0  0  0  0
 23 53  1  0  0  0  0
 24 54  1  0  0  0  0
 24 55  1  0  0  0  0
 24 56  1  0  0  0  0
 25 57  1  0  0  0  0
 25 58  1  0  0  0  0
 25 59  1  0  0  0  0
 26 60  1  0  0  0  0
 26 61  1  0  0  0  0
 30 62  1  0  0  0  0
 31 63  1  0  0  0  0
M  END
> <SourceTag>
EZ_12

> <Clean Energy>
28.3989

> <Activity_sEH>
0.7

> <Activity_FLAP>
3.7

> <Gold.Version>
5.2

> <Gold.Id.Protein>
6HGV|6HGV_protein|mol2

> <Gold.Goldscore.Fitness>
85.8463

> <Gold.Goldscore.Internal.Vdw>
-17.2635

> <Gold.Goldscore.Internal.Torsion>
-7.6434

> <Gold.Goldscore.External.Vdw>
60.4946

> <Gold.Goldscore.Internal.HBond>
0.0000

> <Gold.Goldscore.External.HBond>
6.4334

> <Gold.Goldscore.Internal.Correction>
-21.1398

> <Gold.Goldscore.Hbonds>
donor molecule, donor type, donor heavy atom, donor atom, acceptor molecule, acceptor atom, score
      P1  H  1256  3854       L1    32  0.04
      L1  H    30    62       P1   853  0.51
      L1  H    31    63       P1   853  0.55

> <Gold.Goldscore.Internal.Vdw.Weighted>
-17.2635

> <Gold.Goldscore.Internal.Torsion.Weighted>
-7.6434

> <Gold.Goldscore.External.Vdw.Weighted>
83.1800

> <Gold.Goldscore.Internal.HBond.Weighted>
0.0000

> <Gold.Goldscore.External.HBond.Weighted>
6.4334

> <Gold.Goldscore.Internal.Correction.Weighted>
-21.1398

> <Gold.Protein.RotatedTorsions>
[ 3781 1176 1175 1172 ] final   99.67 input   60.00 | X-H torsion
[ 3847 1247 1246 1244 ] final  -68.48 input   60.00 | X-H torsion
[ 4507 1931 1930 1928 ] final   92.87 input   60.00 | X-H torsion
[ 3677 1070 1069 1066 ] final  -87.15 input   60.00 | X-H torsion
[ 3525  925  924  922 ] final   55.60 input   59.99 | X-H torsion
[ 4531 1957 1955 1953 ] final  -26.91 input   60.00 | X-H torsion

> <Gold.Protein.ActiveResidues>
 PHE267  PRO268  MET310  ASP335  TRP336  MET339  TYR343  THR360  PRO361  ILE363 
 PRO371  SER374  ILE375  ASN378  PHE381  TYR383  GLN384  PHE387  LEU408  LEU417 
 MET419  LEU428  TYR466  MET469  ASN472  ASP496  VAL498  LEU499  MET503  HIS524 
 TRP525 

> <Gold.Protein.RotatedAtoms>
   -2.8708  -29.8263  -30.8710 H   0  0  0  0  0  0  0  0  0  0  0  0  # atno 3525 bound_to 925 
  -11.9258  -23.8198  -31.3605 H   0  0  0  0  0  0  0  0  0  0  0  0  # atno 3677 bound_to 1070
  -10.1196  -37.2544  -32.4117 H   0  0  0  0  0  0  0  0  0  0  0  0  # atno 3781 bound_to 1176
  -16.0388  -27.7459  -37.2976 H   0  0  0  0  0  0  0  0  0  0  0  0  # atno 3847 bound_to 1247
  -12.4527  -24.2211  -39.0243 H   0  0  0  0  0  0  0  0  0  0  0  0  # atno 4507 bound_to 1931
   -2.5021  -32.2558  -36.7523 H   0  0  0  0  0  0  0  0  0  0  0  0  # atno 4531 bound_to 1957
  -10.6839  -37.0608  -33.9257 LP  0  0  0  0  0  0  0  0  0  0  0  0  # atno 5205 bound_to 1176
   -9.3067  -36.3152  -33.4630 LP  0  0  0  0  0  0  0  0  0  0  0  0  # atno 5206 bound_to 1176
  -14.5649  -27.5348  -37.9542 LP  0  0  0  0  0  0  0  0  0  0  0  0  # atno 5215 bound_to 1247
  -14.9547  -28.9588  -37.2564 LP  0  0  0  0  0  0  0  0  0  0  0  0  # atno 5216 bound_to 1247
  -13.5151  -25.3823  -39.4376 LP  0  0  0  0  0  0  0  0  0  0  0  0  # atno 5217 bound_to 1931
  -13.2313  -24.1333  -40.4506 LP  0  0  0  0  0  0  0  0  0  0  0  0  # atno 5218 bound_to 1931
  -11.2137  -22.4247  -30.9190 LP  0  0  0  0  0  0  0  0  0  0  0  0  # atno 5224 bound_to 1070
  -12.7148  -22.7832  -30.3852 LP  0  0  0  0  0  0  0  0  0  0  0  0  # atno 5225 bound_to 1070

$$$$
EZ_12|Lisa_paper2_min|sdf|1|dock6
  -GOLD-  10182016483D 1   1.00000     0.00000

 63 66  0  0  0  0  0  0  0  0  1 V2000
   -3.9515  -32.7591  -34.3284 C   0  0  0  0  0  0  0  0  0  0  0  0
   -5.0610  -33.6018  -34.3154 C   0  0  0  0  0  0  0  0  0  0  0  0
   -4.1094  -31.3720  -34.3996 C   0  0  0  0  0  0  0  0  0  0  0  0
   -6.3616  -33.0887  -34.3726 C   0  0  0  0  0  0  0  0  0  0  0  0
  -11.7790  -27.0927  -37.1573 C   0  0  0  0  0  0  0  0  0  0  0  0
  -16.4440  -24.4188  -39.2523 C   0  0  0  0  0  0  0  0  0  0  0  0
  -10.5993  -27.8288  -37.0477 C   0  0  0  0  0  0  0  0  0  0  0  0
  -17.6240  -24.2324  -39.9723 C   0  0  0  0  0  0  0  0  0  0  0  0
   -9.9214  -26.4632  -35.1735 C   0  0  0  0  0  0  0  0  0  0  0  0
  -17.6471  -24.0614  -37.1879 C   0  0  0  0  0  0  0  0  0  0  0  0
  -11.1010  -25.7269  -35.2833 C   0  0  0  0  0  0  0  0  0  0  0  0
   -5.4095  -30.8394  -34.4581 C   0  0  0  0  0  0  0  0  0  0  0  0
   -6.5110  -31.6961  -34.4439 C   0  0  0  0  0  0  0  0  0  0  0  0
  -16.4555  -24.3334  -37.8601 C   0  0  0  0  0  0  0  0  0  0  0  0
  -12.0298  -26.0417  -36.2752 C   0  0  0  0  0  0  0  0  0  0  0  0
   -9.6704  -27.5141  -36.0558 C   0  0  0  0  0  0  0  0  0  0  0  0
  -18.8156  -23.9605  -39.3001 C   0  0  0  0  0  0  0  0  0  0  0  0
  -18.8271  -23.8749  -37.9078 C   0  0  0  0  0  0  0  0  0  0  0  0
   -7.1159  -29.5725  -34.5624 C   0  0  0  0  0  0  0  0  0  0  0  0
   -8.9650  -31.2347  -34.5272 C   0  0  0  0  0  0  0  0  0  0  0  0
  -14.2405  -25.4604  -37.3680 C   0  0  0  0  0  0  0  0  0  0  0  0
  -11.3429  -24.6065  -34.3246 C   0  0  0  0  0  0  0  0  0  0  0  0
  -11.0025  -32.6268  -35.8892 C   0  0  0  0  0  0  0  0  0  0  0  0
  -10.3107  -34.6230  -34.5305 C   0  0  0  0  0  0  0  0  0  0  0  0
  -11.2140  -32.5804  -33.3817 C   0  0  0  0  0  0  0  0  0  0  0  0
   -7.9506  -28.3516  -34.6428 C   0  0  0  0  0  0  0  0  0  0  0  0
  -10.4004  -33.0988  -34.5666 C   0  0  0  0  0  0  0  0  0  0  0  0
   -5.8050  -29.5311  -34.5319 N   0  0  0  0  0  0  0  0  0  0  0  0
   -7.6174  -30.8577  -34.5120 N   0  0  0  0  0  0  0  0  0  0  0  0
  -15.2584  -24.5232  -37.1301 N   0  0  0  0  0  0  0  0  0  0  0  0
  -13.2161  -25.3149  -36.4025 N   0  0  0  0  0  0  0  0  0  0  0  0
   -9.8566  -30.4044  -34.5896 O   0  0  0  0  0  0  0  0  0  0  0  0
  -14.2339  -26.2855  -38.2760 O   0  0  0  0  0  0  0  0  0  0  0  0
   -8.5133  -28.2368  -35.9478 O   0  0  0  0  0  0  0  0  0  0  0  0
   -9.0687  -32.5863  -34.4640 O   0  0  0  0  0  0  0  0  0  0  0  0
  -20.2433  -23.7364  -40.2485 Cl  0  0  0  0  0  0  0  0  0  0  0  0
  -20.2711  -23.5386  -37.0185 Cl  0  0  0  0  0  0  0  0  0  0  0  0
   -2.9521  -33.1832  -34.2830 H   0  0  0  0  0  0  0  0  0  0  0  0
   -4.9150  -34.6778  -34.2601 H   0  0  0  0  0  0  0  0  0  0  0  0
   -3.2402  -30.7215  -34.4098 H   0  0  0  0  0  0  0  0  0  0  0  0
   -7.2077  -33.7656  -34.3611 H   0  0  0  0  0  0  0  0  0  0  0  0
  -12.4950  -27.3465  -37.9352 H   0  0  0  0  0  0  0  0  0  0  0  0
  -15.5211  -24.6318  -39.7858 H   0  0  0  0  0  0  0  0  0  0  0  0
  -10.4098  -28.6467  -37.7376 H   0  0  0  0  0  0  0  0  0  0  0  0
  -17.5966  -24.3042  -41.0568 H   0  0  0  0  0  0  0  0  0  0  0  0
   -9.1951  -26.2200  -34.4016 H   0  0  0  0  0  0  0  0  0  0  0  0
  -17.6495  -23.9946  -36.1018 H   0  0  0  0  0  0  0  0  0  0  0  0
  -11.4610  -23.6620  -34.8675 H   0  0  0  0  0  0  0  0  0  0  0  0
  -12.2466  -24.7837  -33.7291 H   0  0  0  0  0  0  0  0  0  0  0  0
  -10.5098  -24.5032  -33.6187 H   0  0  0  0  0  0  0  0  0  0  0  0
  -10.2700  -32.7043  -36.7005 H   0  0  0  0  0  0  0  0  0  0  0  0
  -11.8866  -33.2124  -36.1618 H   0  0  0  0  0  0  0  0  0  0  0  0
  -11.2908  -31.5708  -35.8328 H   0  0  0  0  0  0  0  0  0  0  0  0
   -9.7872  -35.0040  -35.4148 H   0  0  0  0  0  0  0  0  0  0  0  0
  -11.3098  -35.0732  -34.5453 H   0  0  0  0  0  0  0  0  0  0  0  0
   -9.7847  -34.9757  -33.6375 H   0  0  0  0  0  0  0  0  0  0  0  0
  -12.1320  -33.1651  -33.2518 H   0  0  0  0  0  0  0  0  0  0  0  0
  -10.6415  -32.6243  -32.4494 H   0  0  0  0  0  0  0  0  0  0  0  0
  -11.5286  -31.5439  -33.5486 H   0  0  0  0  0  0  0  0  0  0  0  0
   -8.7764  -28.3693  -33.9128 H   0  0  0  0  0  0  0  0  0  0  0  0
   -7.3622  -27.4420  -34.4388 H   0  0  0  0  0  0  0  0  0  0  0  0
  -15.1180  -23.9046  -36.3353 H   0  0  0  0  0  0  0  0  0  0  0  0
  -13.3757  -24.5769  -35.7099 H   0  0  0  0  0  0  0  0  0  0  0  0
  1  2  2  0  0  0  0
  1  3  1  0  0  0  0
  2  4  1  0  0  0  0
  3 12  2  0  0  0  0
  4 13  2  0  0  0  0
  5  7  1  0  0  0  0
  5 15  2  0  0  0  0
  6  8  1  0  0  0  0
  6 14  2  0  0  0  0
  7 16  2  0  0  0  0
  8 17  2  0  0  0  0
  9 11  2  0  0  0  0
  9 16  1  0  0  0  0
 10 14  1  0  0  0  0
 10 18  2  0  0  0  0
 11 15  1  0  0  0  0
 11 22  1  0  0  0  0
 12 13  1  0  0  0  0
 12 28  1  0  0  0  0
 13 29  1  0  0  0  0
 14 30  1  0  0  0  0
 15 31  1  0  0  0  0
 16 34  1  0  0  0  0
 17 18  1  0  0  0  0
 17 36  1  0  0  0  0
 18 37  1  0  0  0  0
 19 26  1  0  0  0  0
 19 28  2  0  0  0  0
 19 29  1  0  0  0  0
 20 29  1  0  0  0  0
 20 32  2  0  0  0  0
 20 35  1  0  0  0  0
 21 30  1  0  0  0  0
 21 31  1  0  0  0  0
 21 33  2  0  0  0  0
 23 27  1  0  0  0  0
 24 27  1  0  0  0  0
 25 27  1  0  0  0  0
 26 34  1  0  0  0  0
 27 35  1  0  0  0  0
  1 38  1  0  0  0  0
  2 39  1  0  0  0  0
  3 40  1  0  0  0  0
  4 41  1  0  0  0  0
  5 42  1  0  0  0  0
  6 43  1  0  0  0  0
  7 44  1  0  0  0  0
  8 45  1  0  0  0  0
  9 46  1  0  0  0  0
 10 47  1  0  0  0  0
 22 48  1  0  0  0  0
 22 49  1  0  0  0  0
 22 50  1  0  0  0  0
 23 51  1  0  0  0  0
 23 52  1  0  0  0  0
 23 53  1  0  0  0  0
 24 54  1  0  0  0  0
 24 55  1  0  0  0  0
 24 56  1  0  0  0  0
 25 57  1  0  0  0  0
 25 58  1  0  0  0  0
 25 59  1  0  0  0  0
 26 60  1  0  0  0  0
 26 61  1  0  0  0  0
 30 62  1  0  0  0  0
 31 63  1  0  0  0  0
M  END
> <SourceTag>
EZ_12

> <Clean Energy>
28.3989

> <Activity_sEH>
0.7

> <Activity_FLAP>
3.7

> <Gold.Version>
5.2

> <Gold.Id.Protein>
6HGV|6HGV_protein|mol2

> <Gold.Goldscore.Fitness>
84.4270

> <Gold.Goldscore.Internal.Vdw>
-16.8874

> <Gold.Goldscore.Internal.Torsion>
-6.7424

> <Gold.Goldscore.External.Vdw>
60.8256

> <Gold.Goldscore.Internal.HBond>
0.0000

> <Gold.Goldscore.External.HBond>
5.7262

> <Gold.Goldscore.Internal.Correction>
-18.6954

> <Gold.Goldscore.Hbonds>
donor molecule, donor type, donor heavy atom, donor atom, acceptor molecule, acceptor atom, score
      P1  H  1256  3854       L1    32  0.04
      L1  H    30    62       P1   853  0.44
      L1  H    31    63       P1   853  0.50

> <Gold.Goldscore.Internal.Vdw.Weighted>
-16.8874

> <Gold.Goldscore.Internal.Torsion.Weighted>
-6.7424

> <Gold.Goldscore.External.Vdw.Weighted>
83.6352

> <Gold.Goldscore.Internal.HBond.Weighted>
0.0000

> <Gold.Goldscore.External.HBond.Weighted>
5.7262

> <Gold.Goldscore.Internal.Correction.Weighted>
-18.6954

> <Gold.Protein.RotatedTorsions>
[ 3781 1176 1175 1172 ] final   74.14 input   60.00 | X-H torsion
[ 3847 1247 1246 1244 ] final  -53.54 input   60.00 | X-H torsion
[ 4507 1931 1930 1928 ] final  119.63 input   60.00 | X-H torsion
[ 3677 1070 1069 1066 ] final  -66.53 input   60.00 | X-H torsion
[ 3525  925  924  922 ] final   52.36 input   59.99 | X-H torsion
[ 4531 1957 1955 1953 ] final    8.41 input   60.00 | X-H torsion

> <Gold.Protein.ActiveResidues>
 PHE267  PRO268  MET310  ASP335  TRP336  MET339  TYR343  THR360  PRO361  ILE363 
 PRO371  SER374  ILE375  ASN378  PHE381  TYR383  GLN384  PHE387  LEU408  LEU417 
 MET419  LEU428  TYR466  MET469  ASN472  ASP496  VAL498  LEU499  MET503  HIS524 
 TRP525 

> <Gold.Protein.RotatedAtoms>
   -2.9194  -29.8053  -30.8702 H   0  0  0  0  0  0  0  0  0  0  0  0  # atno 3525 bound_to 925 
  -12.2304  -23.8405  -31.2225 H   0  0  0  0  0  0  0  0  0  0  0  0  # atno 3677 bound_to 1070
  -10.4517  -37.4020  -32.6094 H   0  0  0  0  0  0  0  0  0  0  0  0  # atno 3781 bound_to 1176
  -16.0677  -27.9676  -37.2015 H   0  0  0  0  0  0  0  0  0  0  0  0  # atno 3847 bound_to 1247
  -12.4449  -23.9370  -39.3514 H   0  0  0  0  0  0  0  0  0  0  0  0  # atno 4507 bound_to 1931
   -2.9406  -32.6087  -36.6750 H   0  0  0  0  0  0  0  0  0  0  0  0  # atno 4531 bound_to 1957
  -10.4180  -36.8090  -34.1244 LP  0  0  0  0  0  0  0  0  0  0  0  0  # atno 5205 bound_to 1176
   -9.2381  -36.4185  -33.0652 LP  0  0  0  0  0  0  0  0  0  0  0  0  # atno 5206 bound_to 1176
  -14.7481  -27.3722  -37.9445 LP  0  0  0  0  0  0  0  0  0  0  0  0  # atno 5215 bound_to 1247
  -14.7425  -28.8981  -37.3630 LP  0  0  0  0  0  0  0  0  0  0  0  0  # atno 5216 bound_to 1247
  -13.2639  -25.3180  -39.0867 LP  0  0  0  0  0  0  0  0  0  0  0  0  # atno 5217 bound_to 1931
  -13.4903  -24.4837  -40.4721 LP  0  0  0  0  0  0  0  0  0  0  0  0  # atno 5218 bound_to 1931
  -11.1007  -22.6739  -31.1165 LP  0  0  0  0  0  0  0  0  0  0  0  0  # atno 5224 bound_to 1070
  -12.5210  -22.5133  -30.3267 LP  0  0  0  0  0  0  0  0  0  0  0  0  # atno 5225 bound_to 1070

$$$$
EZ_12|Lisa_paper2_min|sdf|1|dock8
  -GOLD-  10182016493D 1   1.00000     0.00000

 63 66  0  0  0  0  0  0  0  0  1 V2000
   -3.4356  -31.9135  -33.9489 C   0  0  0  0  0  0  0  0  0  0  0  0
   -4.3666  -32.9059  -34.2485 C   0  0  0  0  0  0  0  0  0  0  0  0
   -3.8168  -30.5697  -33.8955 C   0  0  0  0  0  0  0  0  0  0  0  0
   -5.7058  -32.5901  -34.5037 C   0  0  0  0  0  0  0  0  0  0  0  0
  -11.7748  -27.0404  -37.2539 C   0  0  0  0  0  0  0  0  0  0  0  0
  -17.6693  -24.0449  -37.5631 C   0  0  0  0  0  0  0  0  0  0  0  0
  -10.5950  -27.7624  -37.0743 C   0  0  0  0  0  0  0  0  0  0  0  0
  -18.8355  -23.9087  -38.3160 C   0  0  0  0  0  0  0  0  0  0  0  0
  -10.0097  -26.3422  -35.2094 C   0  0  0  0  0  0  0  0  0  0  0  0
  -16.4376  -24.5887  -39.5691 C   0  0  0  0  0  0  0  0  0  0  0  0
  -11.1895  -25.6201  -35.3891 C   0  0  0  0  0  0  0  0  0  0  0  0
   -5.1587  -30.2346  -34.1496 C   0  0  0  0  0  0  0  0  0  0  0  0
   -6.0797  -31.2396  -34.4481 C   0  0  0  0  0  0  0  0  0  0  0  0
  -16.4703  -24.3848  -38.1896 C   0  0  0  0  0  0  0  0  0  0  0  0
  -12.0720  -25.9691  -36.4113 C   0  0  0  0  0  0  0  0  0  0  0  0
   -9.7124  -27.4134  -36.0521 C   0  0  0  0  0  0  0  0  0  0  0  0
  -18.8028  -24.1126  -39.6955 C   0  0  0  0  0  0  0  0  0  0  0  0
  -17.6038  -24.4526  -40.3221 C   0  0  0  0  0  0  0  0  0  0  0  0
   -7.0135  -29.2352  -34.4470 C   0  0  0  0  0  0  0  0  0  0  0  0
   -8.5228  -31.1432  -34.9618 C   0  0  0  0  0  0  0  0  0  0  0  0
  -14.2623  -25.4687  -37.5825 C   0  0  0  0  0  0  0  0  0  0  0  0
  -11.4817  -24.4774  -34.4716 C   0  0  0  0  0  0  0  0  0  0  0  0
   -9.3177  -34.7102  -35.1162 C   0  0  0  0  0  0  0  0  0  0  0  0
  -10.1051  -32.9798  -33.4745 C   0  0  0  0  0  0  0  0  0  0  0  0
  -10.6374  -32.7216  -35.9154 C   0  0  0  0  0  0  0  0  0  0  0  0
   -8.0200  -28.1539  -34.5545 C   0  0  0  0  0  0  0  0  0  0  0  0
   -9.6141  -33.2270  -34.8994 C   0  0  0  0  0  0  0  0  0  0  0  0
   -5.7559  -29.0030  -34.1543 N   0  0  0  0  0  0  0  0  0  0  0  0
   -7.2852  -30.5750  -34.6395 N   0  0  0  0  0  0  0  0  0  0  0  0
  -15.2874  -24.5222  -37.4256 N   0  0  0  0  0  0  0  0  0  0  0  0
  -13.2577  -25.2569  -36.6086 N   0  0  0  0  0  0  0  0  0  0  0  0
   -9.5198  -30.4552  -35.1062 O   0  0  0  0  0  0  0  0  0  0  0  0
  -14.2353  -26.3506  -38.4350 O   0  0  0  0  0  0  0  0  0  0  0  0
   -8.5552  -28.1223  -35.8756 O   0  0  0  0  0  0  0  0  0  0  0  0
   -8.3998  -32.4903  -35.0706 O   0  0  0  0  0  0  0  0  0  0  0  0
  -20.2815  -23.9320  -40.5725 Cl  0  0  0  0  0  0  0  0  0  0  0  0
  -17.5001  -24.7200  -42.0270 Cl  0  0  0  0  0  0  0  0  0  0  0  0
   -2.4017  -32.1856  -33.7547 H   0  0  0  0  0  0  0  0  0  0  0  0
   -4.0481  -33.9448  -34.2853 H   0  0  0  0  0  0  0  0  0  0  0  0
   -3.0858  -29.8018  -33.6618 H   0  0  0  0  0  0  0  0  0  0  0  0
   -6.4101  -33.3806  -34.7344 H   0  0  0  0  0  0  0  0  0  0  0  0
  -12.4545  -27.3210  -38.0548 H   0  0  0  0  0  0  0  0  0  0  0  0
  -17.7053  -23.8823  -36.4889 H   0  0  0  0  0  0  0  0  0  0  0  0
  -10.3693  -28.5961  -37.7337 H   0  0  0  0  0  0  0  0  0  0  0  0
  -19.7606  -23.6417  -37.8112 H   0  0  0  0  0  0  0  0  0  0  0  0
   -9.3195  -26.0723  -34.4138 H   0  0  0  0  0  0  0  0  0  0  0  0
  -15.4995  -24.8550  -40.0521 H   0  0  0  0  0  0  0  0  0  0  0  0
  -11.6078  -23.5528  -35.0460 H   0  0  0  0  0  0  0  0  0  0  0  0
  -12.3958  -24.6582  -33.8934 H   0  0  0  0  0  0  0  0  0  0  0  0
  -10.6694  -24.3329  -33.7489 H   0  0  0  0  0  0  0  0  0  0  0  0
   -8.5690  -35.0667  -34.3999 H   0  0  0  0  0  0  0  0  0  0  0  0
  -10.2197  -35.3216  -35.0098 H   0  0  0  0  0  0  0  0  0  0  0  0
   -8.8979  -34.8833  -36.1139 H   0  0  0  0  0  0  0  0  0  0  0  0
   -9.3897  -33.3707  -32.7420 H   0  0  0  0  0  0  0  0  0  0  0  0
  -11.0510  -33.5023  -33.2915 H   0  0  0  0  0  0  0  0  0  0  0  0
  -10.2546  -31.9132  -33.2780 H   0  0  0  0  0  0  0  0  0  0  0  0
  -11.3549  -33.5092  -36.1727 H   0  0  0  0  0  0  0  0  0  0  0  0
  -11.1932  -31.8592  -35.5331 H   0  0  0  0  0  0  0  0  0  0  0  0
  -10.1467  -32.4324  -36.8518 H   0  0  0  0  0  0  0  0  0  0  0  0
   -8.8547  -28.2977  -33.8489 H   0  0  0  0  0  0  0  0  0  0  0  0
   -7.5816  -27.1665  -34.3352 H   0  0  0  0  0  0  0  0  0  0  0  0
  -15.1645  -23.8531  -36.6698 H   0  0  0  0  0  0  0  0  0  0  0  0
  -13.4331  -24.4764  -35.9682 H   0  0  0  0  0  0  0  0  0  0  0  0
  1  2  2  0  0  0  0
  1  3  1  0  0  0  0
  2  4  1  0  0  0  0
  3 12  2  0  0  0  0
  4 13  2  0  0  0  0
  5  7  1  0  0  0  0
  5 15  2  0  0  0  0
  6  8  1  0  0  0  0
  6 14  2  0  0  0  0
  7 16  2  0  0  0  0
  8 17  2  0  0  0  0
  9 11  2  0  0  0  0
  9 16  1  0  0  0  0
 10 14  1  0  0  0  0
 10 18  2  0  0  0  0
 11 15  1  0  0  0  0
 11 22  1  0  0  0  0
 12 13  1  0  0  0  0
 12 28  1  0  0  0  0
 13 29  1  0  0  0  0
 14 30  1  0  0  0  0
 15 31  1  0  0  0  0
 16 34  1  0  0  0  0
 17 18  1  0  0  0  0
 17 36  1  0  0  0  0
 18 37  1  0  0  0  0
 19 26  1  0  0  0  0
 19 28  2  0  0  0  0
 19 29  1  0  0  0  0
 20 29  1  0  0  0  0
 20 32  2  0  0  0  0
 20 35  1  0  0  0  0
 21 30  1  0  0  0  0
 21 31  1  0  0  0  0
 21 33  2  0  0  0  0
 23 27  1  0  0  0  0
 24 27  1  0  0  0  0
 25 27  1  0  0  0  0
 26 34  1  0  0  0  0
 27 35  1  0  0  0  0
  1 38  1  0  0  0  0
  2 39  1  0  0  0  0
  3 40  1  0  0  0  0
  4 41  1  0  0  0  0
  5 42  1  0  0  0  0
  6 43  1  0  0  0  0
  7 44  1  0  0  0  0
  8 45  1  0  0  0  0
  9 46  1  0  0  0  0
 10 47  1  0  0  0  0
 22 48  1  0  0  0  0
 22 49  1  0  0  0  0
 22 50  1  0  0  0  0
 23 51  1  0  0  0  0
 23 52  1  0  0  0  0
 23 53  1  0  0  0  0
 24 54  1  0  0  0  0
 24 55  1  0  0  0  0
 24 56  1  0  0  0  0
 25 57  1  0  0  0  0
 25 58  1  0  0  0  0
 25 59  1  0  0  0  0
 26 60  1  0  0  0  0
 26 61  1  0  0  0  0
 30 62  1  0  0  0  0
 31 63  1  0  0  0  0
M  END
> <SourceTag>
EZ_12

> <Clean Energy>
28.3989

> <Activity_sEH>
0.7

> <Activity_FLAP>
3.7

> <Gold.Version>
5.2

> <Gold.Id.Protein>
6HGV|6HGV_protein|mol2

> <Gold.Goldscore.Fitness>
82.8853

> <Gold.Goldscore.Internal.Vdw>
-17.6916

> <Gold.Goldscore.Internal.Torsion>
-7.5371

> <Gold.Goldscore.External.Vdw>
59.1007

> <Gold.Goldscore.Internal.HBond>
0.0000

> <Gold.Goldscore.External.HBond>
8.1551

> <Gold.Goldscore.Internal.Correction>
-18.6954

> <Gold.Goldscore.Hbonds>
donor molecule, donor type, donor heavy atom, donor atom, acceptor molecule, acceptor atom, score
      P1  H  1256  3854       L1    32  0.03
      L1  H    30    62       P1   853  0.42
      L1  H    31    63       P1   853  0.93

> <Gold.Goldscore.Internal.Vdw.Weighted>
-17.6916

> <Gold.Goldscore.Internal.Torsion.Weighted>
-7.5371

> <Gold.Goldscore.External.Vdw.Weighted>
81.2634

> <Gold.Goldscore.Internal.HBond.Weighted>
0.0000

> <Gold.Goldscore.External.HBond.Weighted>
8.1551

> <Gold.Goldscore.Internal.Correction.Weighted>
-18.6954

> <Gold.Protein.RotatedTorsions>
[ 3781 1176 1175 1172 ] final  150.77 input   60.00 | X-H torsion
[ 3847 1247 1246 1244 ] final  -73.16 input   60.00 | X-H torsion
[ 4507 1931 1930 1928 ] final  102.80 input   60.00 | X-H torsion
[ 3677 1070 1069 1066 ] final -116.96 input   60.00 | X-H torsion
[ 3525  925  924  922 ] final   36.59 input   59.99 | X-H torsion
[ 4531 1957 1955 1953 ] final  -13.55 input   60.00 | X-H torsion

> <Gold.Protein.ActiveResidues>
 PHE267  PRO268  MET310  ASP335  TRP336  MET339  TYR343  THR360  PRO361  ILE363 
 PRO371  SER374  ILE375  ASN378  PHE381  TYR383  GLN384  PHE387  LEU408  LEU417 
 MET419  LEU428  TYR466  MET469  ASN472  ASP496  VAL498  LEU499  MET503  HIS524 
 TRP525 

> <Gold.Protein.RotatedAtoms>
   -3.1525  -29.7078  -30.8243 H   0  0  0  0  0  0  0  0  0  0  0  0  # atno 3525 bound_to 925 
  -11.5013  -23.6108  -31.4501 H   0  0  0  0  0  0  0  0  0  0  0  0  # atno 3677 bound_to 1070
   -9.4741  -36.7821  -32.5228 H   0  0  0  0  0  0  0  0  0  0  0  0  # atno 3781 bound_to 1176
  -16.0177  -27.6803  -37.3310 H   0  0  0  0  0  0  0  0  0  0  0  0  # atno 3847 bound_to 1247
  -12.4338  -24.1030  -39.1336 H   0  0  0  0  0  0  0  0  0  0  0  0  # atno 4507 bound_to 1931
   -2.6924  -32.3562  -36.7178 H   0  0  0  0  0  0  0  0  0  0  0  0  # atno 4531 bound_to 1957
  -10.8095  -37.4147  -33.2044 LP  0  0  0  0  0  0  0  0  0  0  0  0  # atno 5205 bound_to 1176
   -9.8312  -36.4369  -34.0724 LP  0  0  0  0  0  0  0  0  0  0  0  0  # atno 5206 bound_to 1176
  -14.5156  -27.5940  -37.9509 LP  0  0  0  0  0  0  0  0  0  0  0  0  # atno 5215 bound_to 1247
  -15.0253  -28.9657  -37.2261 LP  0  0  0  0  0  0  0  0  0  0  0  0  # atno 5216 bound_to 1247
  -13.4307  -25.3786  -39.2981 LP  0  0  0  0  0  0  0  0  0  0  0  0  # atno 5217 bound_to 1931
  -13.3348  -24.2559  -40.4801 LP  0  0  0  0  0  0  0  0  0  0  0  0  # atno 5218 bound_to 1931
  -11.5376  -22.2035  -30.6338 LP  0  0  0  0  0  0  0  0  0  0  0  0  # atno 5224 bound_to 1070
  -12.8184  -23.2150  -30.5802 LP  0  0  0  0  0  0  0  0  0  0  0  0  # atno 5225 bound_to 1070

$$$$
EZ_12|Lisa_paper2_min|sdf|1|dock3
  -GOLD-  10182016473D 1   1.00000     0.00000

 63 66  0  0  0  0  0  0  0  0  1 V2000
   -3.6944  -32.6714  -33.1630 C   0  0  0  0  0  0  0  0  0  0  0  0
   -4.4731  -32.7180  -32.0086 C   0  0  0  0  0  0  0  0  0  0  0  0
   -4.1598  -32.0264  -34.3126 C   0  0  0  0  0  0  0  0  0  0  0  0
   -5.7389  -32.1233  -31.9637 C   0  0  0  0  0  0  0  0  0  0  0  0
  -11.2975  -27.1261  -36.7761 C   0  0  0  0  0  0  0  0  0  0  0  0
  -17.1475  -24.0728  -37.5855 C   0  0  0  0  0  0  0  0  0  0  0  0
  -10.1569  -27.8649  -36.4615 C   0  0  0  0  0  0  0  0  0  0  0  0
  -18.2719  -23.9787  -38.4054 C   0  0  0  0  0  0  0  0  0  0  0  0
   -9.8181  -26.5038  -34.4943 C   0  0  0  0  0  0  0  0  0  0  0  0
  -15.8584  -24.9102  -39.4494 C   0  0  0  0  0  0  0  0  0  0  0  0
  -10.9586  -25.7650  -34.8090 C   0  0  0  0  0  0  0  0  0  0  0  0
   -5.4300  -31.4237  -34.2849 C   0  0  0  0  0  0  0  0  0  0  0  0
   -6.1982  -31.4784  -33.1213 C   0  0  0  0  0  0  0  0  0  0  0  0
  -15.9407  -24.5384  -38.1075 C   0  0  0  0  0  0  0  0  0  0  0  0
  -11.6983  -26.0761  -35.9499 C   0  0  0  0  0  0  0  0  0  0  0  0
   -9.4172  -27.5537  -35.3206 C   0  0  0  0  0  0  0  0  0  0  0  0
  -18.1896  -24.3504  -39.7473 C   0  0  0  0  0  0  0  0  0  0  0  0
  -16.9828  -24.8161  -40.2693 C   0  0  0  0  0  0  0  0  0  0  0  0
   -7.2307  -30.3871  -34.7438 C   0  0  0  0  0  0  0  0  0  0  0  0
   -8.4675  -30.5754  -32.5948 C   0  0  0  0  0  0  0  0  0  0  0  0
  -13.8105  -25.6291  -37.2758 C   0  0  0  0  0  0  0  0  0  0  0  0
  -11.3640  -24.6458  -33.9057 C   0  0  0  0  0  0  0  0  0  0  0  0
  -10.8244  -29.2703  -31.4025 C   0  0  0  0  0  0  0  0  0  0  0  0
  -11.7049  -29.3883  -33.7520 C   0  0  0  0  0  0  0  0  0  0  0  0
  -11.0477  -31.4964  -32.5553 C   0  0  0  0  0  0  0  0  0  0  0  0
   -8.2532  -29.6204  -35.4925 C   0  0  0  0  0  0  0  0  0  0  0  0
  -10.7470  -30.0094  -32.7375 C   0  0  0  0  0  0  0  0  0  0  0  0
   -6.0863  -30.7451  -35.2761 N   0  0  0  0  0  0  0  0  0  0  0  0
   -7.3697  -30.7987  -33.4334 N   0  0  0  0  0  0  0  0  0  0  0  0
  -14.8001  -24.6331  -37.2755 N   0  0  0  0  0  0  0  0  0  0  0  0
  -12.8423  -25.3467  -36.2831 N   0  0  0  0  0  0  0  0  0  0  0  0
   -8.4843  -30.9871  -31.4466 O   0  0  0  0  0  0  0  0  0  0  0  0
  -13.7833  -26.6019  -38.0228 O   0  0  0  0  0  0  0  0  0  0  0  0
   -8.2985  -28.2790  -35.0117 O   0  0  0  0  0  0  0  0  0  0  0  0
   -9.4211  -29.8731  -33.2572 O   0  0  0  0  0  0  0  0  0  0  0  0
  -19.6184  -24.2139  -40.7108 Cl  0  0  0  0  0  0  0  0  0  0  0  0
  -16.8187  -25.2936  -41.9228 Cl  0  0  0  0  0  0  0  0  0  0  0  0
   -2.7146  -33.1413  -33.1715 H   0  0  0  0  0  0  0  0  0  0  0  0
   -4.0916  -33.2255  -31.1260 H   0  0  0  0  0  0  0  0  0  0  0  0
   -3.5477  -31.9945  -35.2087 H   0  0  0  0  0  0  0  0  0  0  0  0
   -6.3248  -32.1737  -31.0535 H   0  0  0  0  0  0  0  0  0  0  0  0
  -11.8655  -27.3772  -37.6686 H   0  0  0  0  0  0  0  0  0  0  0  0
  -17.2219  -23.7791  -36.5415 H   0  0  0  0  0  0  0  0  0  0  0  0
   -9.8501  -28.6819  -37.1089 H   0  0  0  0  0  0  0  0  0  0  0  0
  -19.2038  -23.6122  -37.9820 H   0  0  0  0  0  0  0  0  0  0  0  0
   -9.2390  -26.2634  -33.6059 H   0  0  0  0  0  0  0  0  0  0  0  0
  -14.9145  -25.2740  -39.8505 H   0  0  0  0  0  0  0  0  0  0  0  0
  -10.6585  -24.5573  -33.0718 H   0  0  0  0  0  0  0  0  0  0  0  0
  -11.3899  -23.6915  -34.4455 H   0  0  0  0  0  0  0  0  0  0  0  0
  -12.3690  -24.8104  -33.4985 H   0  0  0  0  0  0  0  0  0  0  0  0
  -10.2516  -29.7977  -30.6314 H   0  0  0  0  0  0  0  0  0  0  0  0
  -10.4392  -28.2486  -31.4841 H   0  0  0  0  0  0  0  0  0  0  0  0
  -11.8581  -29.2226  -31.0412 H   0  0  0  0  0  0  0  0  0  0  0  0
  -11.5347  -28.3091  -33.8393 H   0  0  0  0  0  0  0  0  0  0  0  0
  -12.7459  -29.5119  -33.4323 H   0  0  0  0  0  0  0  0  0  0  0  0
  -11.5909  -29.8385  -34.7435 H   0  0  0  0  0  0  0  0  0  0  0  0
  -10.6827  -32.0769  -33.4103 H   0  0  0  0  0  0  0  0  0  0  0  0
  -10.5851  -31.8928  -31.6456 H   0  0  0  0  0  0  0  0  0  0  0  0
  -12.1283  -31.6717  -32.5013 H   0  0  0  0  0  0  0  0  0  0  0  0
   -8.0356  -29.5910  -36.5728 H   0  0  0  0  0  0  0  0  0  0  0  0
   -9.2567  -30.0623  -35.3798 H   0  0  0  0  0  0  0  0  0  0  0  0
  -14.6826  -23.8881  -36.5935 H   0  0  0  0  0  0  0  0  0  0  0  0
  -13.0126  -24.4929  -35.7427 H   0  0  0  0  0  0  0  0  0  0  0  0
  1  2  2  0  0  0  0
  1  3  1  0  0  0  0
  2  4  1  0  0  0  0
  3 12  2  0  0  0  0
  4 13  2  0  0  0  0
  5  7  1  0  0  0  0
  5 15  2  0  0  0  0
  6  8  1  0  0  0  0
  6 14  2  0  0  0  0
  7 16  2  0  0  0  0
  8 17  2  0  0  0  0
  9 11  2  0  0  0  0
  9 16  1  0  0  0  0
 10 14  1  0  0  0  0
 10 18  2  0  0  0  0
 11 15  1  0  0  0  0
 11 22  1  0  0  0  0
 12 13  1  0  0  0  0
 12 28  1  0  0  0  0
 13 29  1  0  0  0  0
 14 30  1  0  0  0  0
 15 31  1  0  0  0  0
 16 34  1  0  0  0  0
 17 18  1  0  0  0  0
 17 36  1  0  0  0  0
 18 37  1  0  0  0  0
 19 26  1  0  0  0  0
 19 28  2  0  0  0  0
 19 29  1  0  0  0  0
 20 29  1  0  0  0  0
 20 32  2  0  0  0  0
 20 35  1  0  0  0  0
 21 30  1  0  0  0  0
 21 31  1  0  0  0  0
 21 33  2  0  0  0  0
 23 27  1  0  0  0  0
 24 27  1  0  0  0  0
 25 27  1  0  0  0  0
 26 34  1  0  0  0  0
 27 35  1  0  0  0  0
  1 38  1  0  0  0  0
  2 39  1  0  0  0  0
  3 40  1  0  0  0  0
  4 41  1  0  0  0  0
  5 42  1  0  0  0  0
  6 43  1  0  0  0  0
  7 44  1  0  0  0  0
  8 45  1  0  0  0  0
  9 46  1  0  0  0  0
 10 47  1  0  0  0  0
 22 48  1  0  0  0  0
 22 49  1  0  0  0  0
 22 50  1  0  0  0  0
 23 51  1  0  0  0  0
 23 52  1  0  0  0  0
 23 53  1  0  0  0  0
 24 54  1  0  0  0  0
 24 55  1  0  0  0  0
 24 56  1  0  0  0  0
 25 57  1  0  0  0  0
 25 58  1  0  0  0  0
 25 59  1  0  0  0  0
 26 60  1  0  0  0  0
 26 61  1  0  0  0  0
 30 62  1  0  0  0  0
 31 63  1  0  0  0  0
M  END
> <SourceTag>
EZ_12

> <Clean Energy>
28.3989

> <Activity_sEH>
0.7

> <Activity_FLAP>
3.7

> <Gold.Version>
5.2

> <Gold.Id.Protein>
6HGV|6HGV_protein|mol2

> <Gold.Goldscore.Fitness>
82.7600

> <Gold.Goldscore.Internal.Vdw>
-16.2825

> <Gold.Goldscore.Internal.Torsion>
-7.6639

> <Gold.Goldscore.External.Vdw>
57.1843

> <Gold.Goldscore.Internal.HBond>
0.0000

> <Gold.Goldscore.External.HBond>
8.0234

> <Gold.Goldscore.Internal.Correction>
-20.0547

> <Gold.Goldscore.Hbonds>
donor molecule, donor type, donor heavy atom, donor atom, acceptor molecule, acceptor atom, score
      L1  H    30    62       P1   853  0.76
      L1  H    31    63       P1   853  0.57

> <Gold.Goldscore.Internal.Vdw.Weighted>
-16.2825

> <Gold.Goldscore.Internal.Torsion.Weighted>
-7.6639

> <Gold.Goldscore.External.Vdw.Weighted>
78.6284

> <Gold.Goldscore.Internal.HBond.Weighted>
0.0000

> <Gold.Goldscore.External.HBond.Weighted>
8.0234

> <Gold.Goldscore.Internal.Correction.Weighted>
-20.0547

> <Gold.Protein.RotatedTorsions>
[ 3781 1176 1175 1172 ] final  111.83 input   60.00 | X-H torsion
[ 3847 1247 1246 1244 ] final  -76.76 input   60.00 | X-H torsion
[ 4507 1931 1930 1928 ] final   96.23 input   60.00 | X-H torsion
[ 3677 1070 1069 1066 ] final  -29.73 input   60.00 | X-H torsion
[ 3525  925  924  922 ] final   31.53 input   59.99 | X-H torsion
[ 4531 1957 1955 1953 ] final  103.83 input   60.00 | X-H torsion

> <Gold.Protein.ActiveResidues>
 PHE267  PRO268  MET310  ASP335  TRP336  MET339  TYR343  THR360  PRO361  ILE363 
 PRO371  SER374  ILE375  ASN378  PHE381  TYR383  GLN384  PHE387  LEU408  LEU417 
 MET419  LEU428  TYR466  MET469  ASN472  ASP496  VAL498  LEU499  MET503  HIS524 
 TRP525 

> <Gold.Protein.RotatedAtoms>
   -3.2243  -29.6792  -30.7951 H   0  0  0  0  0  0  0  0  0  0  0  0  # atno 3525 bound_to 925 
  -12.6625  -23.6201  -30.8846 H   0  0  0  0  0  0  0  0  0  0  0  0  # atno 3677 bound_to 1070
   -9.9513  -37.1559  -32.3750 H   0  0  0  0  0  0  0  0  0  0  0  0  # atno 3781 bound_to 1176
  -15.9977  -27.6317  -37.3575 H   0  0  0  0  0  0  0  0  0  0  0  0  # atno 3847 bound_to 1247
  -12.4442  -24.1797  -39.0595 H   0  0  0  0  0  0  0  0  0  0  0  0  # atno 4507 bound_to 1931
   -2.6208  -33.9539  -36.7590 H   0  0  0  0  0  0  0  0  0  0  0  0  # atno 4531 bound_to 1957
  -10.7685  -37.1710  -33.7821 LP  0  0  0  0  0  0  0  0  0  0  0  0  # atno 5205 bound_to 1176
   -9.3915  -36.3042  -33.6435 LP  0  0  0  0  0  0  0  0  0  0  0  0  # atno 5206 bound_to 1176
  -14.4807  -27.6417  -37.9463 LP  0  0  0  0  0  0  0  0  0  0  0  0  # atno 5215 bound_to 1247
  -15.0803  -28.9669  -37.2041 LP  0  0  0  0  0  0  0  0  0  0  0  0  # atno 5216 bound_to 1247
  -13.4879  -25.3838  -39.3895 LP  0  0  0  0  0  0  0  0  0  0  0  0  # atno 5217 bound_to 1931
  -13.2671  -24.1735  -40.4634 LP  0  0  0  0  0  0  0  0  0  0  0  0  # atno 5218 bound_to 1931
  -11.1708  -23.2017  -31.3826 LP  0  0  0  0  0  0  0  0  0  0  0  0  # atno 5224 bound_to 1070
  -12.0158  -22.2073  -30.4009 LP  0  0  0  0  0  0  0  0  0  0  0  0  # atno 5225 bound_to 1070

$$$$
EZ_12|Lisa_paper2_min|sdf|1|dock5
  -GOLD-  10182016483D 1   1.00000     0.00000

 63 66  0  0  0  0  0  0  0  0  1 V2000
   -3.6925  -32.9319  -33.0272 C   0  0  0  0  0  0  0  0  0  0  0  0
   -4.4281  -32.9318  -31.8439 C   0  0  0  0  0  0  0  0  0  0  0  0
   -4.1854  -32.3029  -34.1743 C   0  0  0  0  0  0  0  0  0  0  0  0
   -5.6768  -32.3051  -31.7667 C   0  0  0  0  0  0  0  0  0  0  0  0
  -11.2297  -27.2711  -36.5987 C   0  0  0  0  0  0  0  0  0  0  0  0
  -15.7129  -24.9750  -39.3434 C   0  0  0  0  0  0  0  0  0  0  0  0
  -10.1129  -28.0355  -36.2610 C   0  0  0  0  0  0  0  0  0  0  0  0
  -16.8297  -24.8680  -40.1722 C   0  0  0  0  0  0  0  0  0  0  0  0
   -9.7653  -26.6629  -34.3034 C   0  0  0  0  0  0  0  0  0  0  0  0
  -16.9995  -24.0973  -37.4964 C   0  0  0  0  0  0  0  0  0  0  0  0
  -10.8820  -25.8983  -34.6412 C   0  0  0  0  0  0  0  0  0  0  0  0
   -5.4389  -31.6684  -34.1143 C   0  0  0  0  0  0  0  0  0  0  0  0
   -6.1638  -31.6766  -32.9220 C   0  0  0  0  0  0  0  0  0  0  0  0
  -15.7978  -24.5897  -38.0055 C   0  0  0  0  0  0  0  0  0  0  0  0
  -11.6141  -26.2024  -35.7888 C   0  0  0  0  0  0  0  0  0  0  0  0
   -9.3807  -27.7315  -35.1134 C   0  0  0  0  0  0  0  0  0  0  0  0
  -18.0314  -24.3756  -39.6632 C   0  0  0  0  0  0  0  0  0  0  0  0
  -18.1163  -23.9902  -38.3252 C   0  0  0  0  0  0  0  0  0  0  0  0
   -7.2304  -30.5987  -34.5315 C   0  0  0  0  0  0  0  0  0  0  0  0
   -8.3894  -30.7054  -32.3341 C   0  0  0  0  0  0  0  0  0  0  0  0
  -13.7052  -25.7235  -37.1369 C   0  0  0  0  0  0  0  0  0  0  0  0
  -11.2703  -24.7595  -33.7551 C   0  0  0  0  0  0  0  0  0  0  0  0
  -10.9281  -31.6069  -32.1490 C   0  0  0  0  0  0  0  0  0  0  0  0
  -10.7229  -29.3117  -31.1492 C   0  0  0  0  0  0  0  0  0  0  0  0
  -11.6693  -29.5896  -33.4590 C   0  0  0  0  0  0  0  0  0  0  0  0
   -8.2617  -29.8248  -35.2603 C   0  0  0  0  0  0  0  0  0  0  0  0
  -10.6685  -30.1291  -32.4381 C   0  0  0  0  0  0  0  0  0  0  0  0
   -6.1157  -30.9974  -35.0968 N   0  0  0  0  0  0  0  0  0  0  0  0
   -7.3297  -30.9756  -33.2071 N   0  0  0  0  0  0  0  0  0  0  0  0
  -14.6649  -24.6991  -37.1649 N   0  0  0  0  0  0  0  0  0  0  0  0
  -12.7344  -25.4474  -36.1451 N   0  0  0  0  0  0  0  0  0  0  0  0
   -8.3729  -31.0893  -31.1762 O   0  0  0  0  0  0  0  0  0  0  0  0
  -13.7028  -26.7134  -37.8618 O   0  0  0  0  0  0  0  0  0  0  0  0
   -8.2854  -28.4820  -34.7818 O   0  0  0  0  0  0  0  0  0  0  0  0
   -9.3503  -29.9955  -32.9777 O   0  0  0  0  0  0  0  0  0  0  0  0
  -19.3782  -24.2642  -40.7410 Cl  0  0  0  0  0  0  0  0  0  0  0  0
  -19.5762  -23.3707  -37.6369 Cl  0  0  0  0  0  0  0  0  0  0  0  0
   -2.7253  -33.4259  -33.0605 H   0  0  0  0  0  0  0  0  0  0  0  0
   -4.0259  -33.4277  -30.9639 H   0  0  0  0  0  0  0  0  0  0  0  0
   -3.6069  -32.3074  -35.0929 H   0  0  0  0  0  0  0  0  0  0  0  0
   -6.2290  -32.3194  -30.8345 H   0  0  0  0  0  0  0  0  0  0  0  0
  -11.7919  -27.5169  -37.4963 H   0  0  0  0  0  0  0  0  0  0  0  0
  -14.7817  -25.3615  -39.7497 H   0  0  0  0  0  0  0  0  0  0  0  0
   -9.8187  -28.8670  -36.8957 H   0  0  0  0  0  0  0  0  0  0  0  0
  -16.7457  -25.1744  -41.2119 H   0  0  0  0  0  0  0  0  0  0  0  0
   -9.1922  -26.4281  -33.4097 H   0  0  0  0  0  0  0  0  0  0  0  0
  -17.0592  -23.7970  -36.4522 H   0  0  0  0  0  0  0  0  0  0  0  0
  -12.2669  -24.9308  -33.3326 H   0  0  0  0  0  0  0  0  0  0  0  0
  -10.5566  -24.6382  -32.9313 H   0  0  0  0  0  0  0  0  0  0  0  0
  -11.2827  -23.8133  -34.3096 H   0  0  0  0  0  0  0  0  0  0  0  0
  -10.5056  -31.8943  -31.1796 H   0  0  0  0  0  0  0  0  0  0  0  0
  -11.9990  -31.8347  -32.1429 H   0  0  0  0  0  0  0  0  0  0  0  0
  -10.4431  -32.2430  -32.8984 H   0  0  0  0  0  0  0  0  0  0  0  0
  -11.7170  -29.3707  -30.6914 H   0  0  0  0  0  0  0  0  0  0  0  0
  -10.5390  -28.2504  -31.3520 H   0  0  0  0  0  0  0  0  0  0  0  0
   -9.9840  -29.6583  -30.4195 H   0  0  0  0  0  0  0  0  0  0  0  0
  -12.6961  -29.6831  -33.0872 H   0  0  0  0  0  0  0  0  0  0  0  0
  -11.4803  -28.5365  -33.6912 H   0  0  0  0  0  0  0  0  0  0  0  0
  -11.6242  -30.1652  -34.3906 H   0  0  0  0  0  0  0  0  0  0  0  0
   -8.0666  -29.7997  -36.3450 H   0  0  0  0  0  0  0  0  0  0  0  0
   -9.2664  -30.2577  -35.1255 H   0  0  0  0  0  0  0  0  0  0  0  0
  -14.5290  -23.9426  -36.4991 H   0  0  0  0  0  0  0  0  0  0  0  0
  -12.8821  -24.5769  -35.6251 H   0  0  0  0  0  0  0  0  0  0  0  0
  1  2  2  0  0  0  0
  1  3  1  0  0  0  0
  2  4  1  0  0  0  0
  3 12  2  0  0  0  0
  4 13  2  0  0  0  0
  5  7  1  0  0  0  0
  5 15  2  0  0  0  0
  6  8  1  0  0  0  0
  6 14  2  0  0  0  0
  7 16  2  0  0  0  0
  8 17  2  0  0  0  0
  9 11  2  0  0  0  0
  9 16  1  0  0  0  0
 10 14  1  0  0  0  0
 10 18  2  0  0  0  0
 11 15  1  0  0  0  0
 11 22  1  0  0  0  0
 12 13  1  0  0  0  0
 12 28  1  0  0  0  0
 13 29  1  0  0  0  0
 14 30  1  0  0  0  0
 15 31  1  0  0  0  0
 16 34  1  0  0  0  0
 17 18  1  0  0  0  0
 17 36  1  0  0  0  0
 18 37  1  0  0  0  0
 19 26  1  0  0  0  0
 19 28  2  0  0  0  0
 19 29  1  0  0  0  0
 20 29  1  0  0  0  0
 20 32  2  0  0  0  0
 20 35  1  0  0  0  0
 21 30  1  0  0  0  0
 21 31  1  0  0  0  0
 21 33  2  0  0  0  0
 23 27  1  0  0  0  0
 24 27  1  0  0  0  0
 25 27  1  0  0  0  0
 26 34  1  0  0  0  0
 27 35  1  0  0  0  0
  1 38  1  0  0  0  0
  2 39  1  0  0  0  0
  3 40  1  0  0  0  0
  4 41  1  0  0  0  0
  5 42  1  0  0  0  0
  6 43  1  0  0  0  0
  7 44  1  0  0  0  0
  8 45  1  0  0  0  0
  9 46  1  0  0  0  0
 10 47  1  0  0  0  0
 22 48  1  0  0  0  0
 22 49  1  0  0  0  0
 22 50  1  0  0  0  0
 23 51  1  0  0  0  0
 23 52  1  0  0  0  0
 23 53  1  0  0  0  0
 24 54  1  0  0  0  0
 24 55  1  0  0  0  0
 24 56  1  0  0  0  0
 25 57  1  0  0  0  0
 25 58  1  0  0  0  0
 25 59  1  0  0  0  0
 26 60  1  0  0  0  0
 26 61  1  0  0  0  0
 30 62  1  0  0  0  0
 31 63  1  0  0  0  0
M  END
> <SourceTag>
EZ_12

> <Clean Energy>
28.3989

> <Activity_sEH>
0.7

> <Activity_FLAP>
3.7

> <Gold.Version>
5.2

> <Gold.Id.Protein>
6HGV|6HGV_protein|mol2

> <Gold.Goldscore.Fitness>
81.0497

> <Gold.Goldscore.Internal.Vdw>
-16.4738

> <Gold.Goldscore.Internal.Torsion>
-8.4346

> <Gold.Goldscore.External.Vdw>
56.6226

> <Gold.Goldscore.Internal.HBond>
0.0000

> <Gold.Goldscore.External.HBond>
8.0474

> <Gold.Goldscore.Internal.Correction>
-20.0547

> <Gold.Goldscore.Hbonds>
donor molecule, donor type, donor heavy atom, donor atom, acceptor molecule, acceptor atom, score
      L1  H    30    62       P1   853  0.94
      L1  H    31    63       P1   853  0.40

> <Gold.Goldscore.Internal.Vdw.Weighted>
-16.4738

> <Gold.Goldscore.Internal.Torsion.Weighted>
-8.4346

> <Gold.Goldscore.External.Vdw.Weighted>
77.8561

> <Gold.Goldscore.Internal.HBond.Weighted>
0.0000

> <Gold.Goldscore.External.HBond.Weighted>
8.0474

> <Gold.Goldscore.Internal.Correction.Weighted>
-20.0547

> <Gold.Protein.RotatedTorsions>
[ 3781 1176 1175 1172 ] final  -60.59 input   60.00 | X-H torsion
[ 3847 1247 1246 1244 ] final  -70.45 input   60.00 | X-H torsion
[ 4507 1931 1930 1928 ] final   92.08 input   60.00 | X-H torsion
[ 3677 1070 1069 1066 ] final  -40.74 input   60.00 | X-H torsion
[ 3525  925  924  922 ] final   37.84 input   59.99 | X-H torsion
[ 4531 1957 1955 1953 ] final   98.59 input   60.00 | X-H torsion

> <Gold.Protein.ActiveResidues>
 PHE267  PRO268  MET310  ASP335  TRP336  MET339  TYR343  THR360  PRO361  ILE363 
 PRO371  SER374  ILE375  ASN378  PHE381  TYR383  GLN384  PHE387  LEU408  LEU417 
 MET419  LEU428  TYR466  MET469  ASN472  ASP496  VAL498  LEU499  MET503  HIS524 
 TRP525 

> <Gold.Protein.RotatedAtoms>
   -3.1344  -29.7151  -30.8304 H   0  0  0  0  0  0  0  0  0  0  0  0  # atno 3525 bound_to 925 
  -12.5569  -23.7178  -30.9921 H   0  0  0  0  0  0  0  0  0  0  0  0  # atno 3677 bound_to 1070
  -10.2241  -36.6699  -34.1582 H   0  0  0  0  0  0  0  0  0  0  0  0  # atno 3781 bound_to 1176
  -16.0306  -27.7180  -37.3115 H   0  0  0  0  0  0  0  0  0  0  0  0  # atno 3847 bound_to 1247
  -12.4550  -24.2309  -39.0164 H   0  0  0  0  0  0  0  0  0  0  0  0  # atno 4507 bound_to 1931
   -2.6927  -33.9096  -36.7446 H   0  0  0  0  0  0  0  0  0  0  0  0  # atno 4531 bound_to 1957
   -9.2699  -36.5209  -32.8485 LP  0  0  0  0  0  0  0  0  0  0  0  0  # atno 5205 bound_to 1176
  -10.6154  -37.4437  -32.7813 LP  0  0  0  0  0  0  0  0  0  0  0  0  # atno 5206 bound_to 1176
  -14.5436  -27.5592  -37.9532 LP  0  0  0  0  0  0  0  0  0  0  0  0  # atno 5215 bound_to 1247
  -14.9842  -28.9624  -37.2435 LP  0  0  0  0  0  0  0  0  0  0  0  0  # atno 5216 bound_to 1247
  -13.5213  -25.3816  -39.4490 LP  0  0  0  0  0  0  0  0  0  0  0  0  # atno 5217 bound_to 1931
  -13.2228  -24.1241  -40.4472 LP  0  0  0  0  0  0  0  0  0  0  0  0  # atno 5218 bound_to 1931
  -11.1132  -23.0421  -31.3200 LP  0  0  0  0  0  0  0  0  0  0  0  0  # atno 5224 bound_to 1070
  -12.1797  -22.2686  -30.3552 LP  0  0  0  0  0  0  0  0  0  0  0  0  # atno 5225 bound_to 1070

$$$$
EZ_12|Lisa_paper2_min|sdf|1|dock4
  -GOLD-  10182016473D 1   1.00000     0.00000

 63 66  0  0  0  0  0  0  0  0  1 V2000
   -3.9554  -33.3185  -33.2198 C   0  0  0  0  0  0  0  0  0  0  0  0
   -4.7728  -33.3952  -32.0940 C   0  0  0  0  0  0  0  0  0  0  0  0
   -4.3471  -32.5755  -34.3372 C   0  0  0  0  0  0  0  0  0  0  0  0
   -6.0051  -32.7339  -32.0467 C   0  0  0  0  0  0  0  0  0  0  0  0
  -10.9421  -27.1248  -36.9530 C   0  0  0  0  0  0  0  0  0  0  0  0
  -16.3443  -23.2916  -38.0525 C   0  0  0  0  0  0  0  0  0  0  0  0
   -9.9550  -27.9962  -36.4928 C   0  0  0  0  0  0  0  0  0  0  0  0
  -17.5175  -23.1626  -38.7958 C   0  0  0  0  0  0  0  0  0  0  0  0
   -9.6663  -26.6283  -34.5223 C   0  0  0  0  0  0  0  0  0  0  0  0
  -15.5019  -24.8873  -39.6591 C   0  0  0  0  0  0  0  0  0  0  0  0
  -10.6532  -25.7568  -34.9827 C   0  0  0  0  0  0  0  0  0  0  0  0
   -5.5826  -31.9048  -34.3066 C   0  0  0  0  0  0  0  0  0  0  0  0
   -6.3904  -31.9907  -33.1720 C   0  0  0  0  0  0  0  0  0  0  0  0
  -15.3364  -24.1540  -38.4842 C   0  0  0  0  0  0  0  0  0  0  0  0
  -11.2911  -26.0050  -36.1980 C   0  0  0  0  0  0  0  0  0  0  0  0
   -9.3171  -27.7481  -35.2774 C   0  0  0  0  0  0  0  0  0  0  0  0
  -17.6830  -23.8960  -39.9707 C   0  0  0  0  0  0  0  0  0  0  0  0
  -16.6751  -24.7583  -40.4024 C   0  0  0  0  0  0  0  0  0  0  0  0
   -7.3081  -30.7404  -34.7481 C   0  0  0  0  0  0  0  0  0  0  0  0
   -8.6229  -30.9964  -32.6531 C   0  0  0  0  0  0  0  0  0  0  0  0
  -13.4078  -25.4507  -37.4755 C   0  0  0  0  0  0  0  0  0  0  0  0
  -11.0064  -24.5653  -34.1529 C   0  0  0  0  0  0  0  0  0  0  0  0
  -11.2535  -31.6357  -32.4661 C   0  0  0  0  0  0  0  0  0  0  0  0
  -10.7790  -29.3932  -31.4387 C   0  0  0  0  0  0  0  0  0  0  0  0
  -11.7787  -29.5288  -33.7388 C   0  0  0  0  0  0  0  0  0  0  0  0
   -8.2621  -29.8703  -35.4738 C   0  0  0  0  0  0  0  0  0  0  0  0
  -10.8327  -30.1924  -32.7391 C   0  0  0  0  0  0  0  0  0  0  0  0
   -6.1681  -31.1276  -35.2694 N   0  0  0  0  0  0  0  0  0  0  0  0
   -7.5121  -31.2271  -33.4724 N   0  0  0  0  0  0  0  0  0  0  0  0
  -14.1462  -24.2841  -37.7302 N   0  0  0  0  0  0  0  0  0  0  0  0
  -12.2807  -25.1429  -36.6770 N   0  0  0  0  0  0  0  0  0  0  0  0
   -8.6998  -31.4796  -31.5356 O   0  0  0  0  0  0  0  0  0  0  0  0
  -13.6918  -26.5730  -37.8817 O   0  0  0  0  0  0  0  0  0  0  0  0
   -8.3491  -28.6035  -34.8256 O   0  0  0  0  0  0  0  0  0  0  0  0
   -9.5146  -30.1999  -33.2950 O   0  0  0  0  0  0  0  0  0  0  0  0
  -19.1603  -23.6947  -40.8454 Cl  0  0  0  0  0  0  0  0  0  0  0  0
  -16.8223  -25.6950  -41.8481 Cl  0  0  0  0  0  0  0  0  0  0  0  0
   -3.0031  -33.8416  -33.2308 H   0  0  0  0  0  0  0  0  0  0  0  0
   -4.4487  -33.9794  -31.2363 H   0  0  0  0  0  0  0  0  0  0  0  0
   -3.7051  -32.5206  -35.2110 H   0  0  0  0  0  0  0  0  0  0  0  0
   -6.6223  -32.8096  -31.1593 H   0  0  0  0  0  0  0  0  0  0  0  0
  -11.4316  -27.3279  -37.9024 H   0  0  0  0  0  0  0  0  0  0  0  0
  -16.2248  -22.7144  -37.1392 H   0  0  0  0  0  0  0  0  0  0  0  0
   -9.6879  -28.8670  -37.0853 H   0  0  0  0  0  0  0  0  0  0  0  0
  -18.2917  -22.4847  -38.4450 H   0  0  0  0  0  0  0  0  0  0  0  0
   -9.1668  -26.4374  -33.5755 H   0  0  0  0  0  0  0  0  0  0  0  0
  -14.7127  -25.5594  -39.9900 H   0  0  0  0  0  0  0  0  0  0  0  0
  -12.0400  -24.6441  -33.7973 H   0  0  0  0  0  0  0  0  0  0  0  0
  -10.3428  -24.4775  -33.2842 H   0  0  0  0  0  0  0  0  0  0  0  0
  -10.9038  -23.6377  -34.7290 H   0  0  0  0  0  0  0  0  0  0  0  0
  -10.8816  -32.3049  -33.2502 H   0  0  0  0  0  0  0  0  0  0  0  0
  -10.8784  -31.9895  -31.5003 H   0  0  0  0  0  0  0  0  0  0  0  0
  -12.3454  -31.7321  -32.4698 H   0  0  0  0  0  0  0  0  0  0  0  0
  -10.4877  -28.3543  -31.6311 H   0  0  0  0  0  0  0  0  0  0  0  0
  -10.0243  -29.8046  -30.7587 H   0  0  0  0  0  0  0  0  0  0  0  0
  -11.7455  -29.3928  -30.9246 H   0  0  0  0  0  0  0  0  0  0  0  0
  -11.7696  -30.0597  -34.6976 H   0  0  0  0  0  0  0  0  0  0  0  0
  -12.8080  -29.5062  -33.3661 H   0  0  0  0  0  0  0  0  0  0  0  0
  -11.4627  -28.5011  -33.9513 H   0  0  0  0  0  0  0  0  0  0  0  0
   -7.9518  -29.7014  -36.5181 H   0  0  0  0  0  0  0  0  0  0  0  0
   -9.2715  -30.3119  -35.5070 H   0  0  0  0  0  0  0  0  0  0  0  0
  -13.7806  -23.4272  -37.3228 H   0  0  0  0  0  0  0  0  0  0  0  0
  -12.1879  -24.1549  -36.4216 H   0  0  0  0  0  0  0  0  0  0  0  0
  1  2  2  0  0  0  0
  1  3  1  0  0  0  0
  2  4  1  0  0  0  0
  3 12  2  0  0  0  0
  4 13  2  0  0  0  0
  5  7  1  0  0  0  0
  5 15  2  0  0  0  0
  6  8  1  0  0  0  0
  6 14  2  0  0  0  0
  7 16  2  0  0  0  0
  8 17  2  0  0  0  0
  9 11  2  0  0  0  0
  9 16  1  0  0  0  0
 10 14  1  0  0  0  0
 10 18  2  0  0  0  0
 11 15  1  0  0  0  0
 11 22  1  0  0  0  0
 12 13  1  0  0  0  0
 12 28  1  0  0  0  0
 13 29  1  0  0  0  0
 14 30  1  0  0  0  0
 15 31  1  0  0  0  0
 16 34  1  0  0  0  0
 17 18  1  0  0  0  0
 17 36  1  0  0  0  0
 18 37  1  0  0  0  0
 19 26  1  0  0  0  0
 19 28  2  0  0  0  0
 19 29  1  0  0  0  0
 20 29  1  0  0  0  0
 20 32  2  0  0  0  0
 20 35  1  0  0  0  0
 21 30  1  0  0  0  0
 21 31  1  0  0  0  0
 21 33  2  0  0  0  0
 23 27  1  0  0  0  0
 24 27  1  0  0  0  0
 25 27  1  0  0  0  0
 26 34  1  0  0  0  0
 27 35  1  0  0  0  0
  1 38  1  0  0  0  0
  2 39  1  0  0  0  0
  3 40  1  0  0  0  0
  4 41  1  0  0  0  0
  5 42  1  0  0  0  0
  6 43  1  0  0  0  0
  7 44  1  0  0  0  0
  8 45  1  0  0  0  0
  9 46  1  0  0  0  0
 10 47  1  0  0  0  0
 22 48  1  0  0  0  0
 22 49  1  0  0  0  0
 22 50  1  0  0  0  0
 23 51  1  0  0  0  0
 23 52  1  0  0  0  0
 23 53  1  0  0  0  0
 24 54  1  0  0  0  0
 24 55  1  0  0  0  0
 24 56  1  0  0  0  0
 25 57  1  0  0  0  0
 25 58  1  0  0  0  0
 25 59  1  0  0  0  0
 26 60  1  0  0  0  0
 26 61  1  0  0  0  0
 30 62  1  0  0  0  0
 31 63  1  0  0  0  0
M  END
> <SourceTag>
EZ_12

> <Clean Energy>
28.3989

> <Activity_sEH>
0.7

> <Activity_FLAP>
3.7

> <Gold.Version>
5.2

> <Gold.Id.Protein>
6HGV|6HGV_protein|mol2

> <Gold.Goldscore.Fitness>
79.8191

> <Gold.Goldscore.Internal.Vdw>
-14.8241

> <Gold.Goldscore.Internal.Torsion>
-8.0414

> <Gold.Goldscore.External.Vdw>
54.3471

> <Gold.Goldscore.Internal.HBond>
0.0000

> <Gold.Goldscore.External.HBond>
7.9028

> <Gold.Goldscore.Internal.Correction>
-20.0547

> <Gold.Goldscore.Hbonds>
donor molecule, donor type, donor heavy atom, donor atom, acceptor molecule, acceptor atom, score
      P1  H  1247  3847       L1    33  0.42
      L1  H    30    62       P1   854  0.83
      L1  H    31    63       P1   854  0.35

> <Gold.Goldscore.Internal.Vdw.Weighted>
-14.8241

> <Gold.Goldscore.Internal.Torsion.Weighted>
-8.0414

> <Gold.Goldscore.External.Vdw.Weighted>
74.7272

> <Gold.Goldscore.Internal.HBond.Weighted>
0.0000

> <Gold.Goldscore.External.HBond.Weighted>
7.9028

> <Gold.Goldscore.Internal.Correction.Weighted>
-20.0547

> <Gold.Protein.RotatedTorsions>
[ 3781 1176 1175 1172 ] final  144.90 input   60.00 | X-H torsion
[ 3847 1247 1246 1244 ] final  176.50 input   60.00 | X-H torsion
[ 4507 1931 1930 1928 ] final -173.52 input   60.00 | X-H torsion
[ 3677 1070 1069 1066 ] final  -60.78 input   60.00 | X-H torsion
[ 3525  925  924  922 ] final   24.60 input   59.99 | X-H torsion
[ 4531 1957 1955 1953 ] final  100.81 input   60.00 | X-H torsion

> <Gold.Protein.ActiveResidues>
 PHE267  PRO268  MET310  ASP335  TRP336  MET339  TYR343  THR360  PRO361  ILE363 
 PRO371  SER374  ILE375  ASN378  PHE381  TYR383  GLN384  PHE387  LEU408  LEU417 
 MET419  LEU428  TYR466  MET469  ASN472  ASP496  VAL498  LEU499  MET503  HIS524 
 TRP525 

> <Gold.Protein.RotatedAtoms>
   -3.3187  -29.6427  -30.7443 H   0  0  0  0  0  0  0  0  0  0  0  0  # atno 3525 bound_to 925 
  -12.3106  -23.8270  -31.1754 H   0  0  0  0  0  0  0  0  0  0  0  0  # atno 3677 bound_to 1070
   -9.5344  -36.8399  -32.4758 H   0  0  0  0  0  0  0  0  0  0  0  0  # atno 3781 bound_to 1176
  -14.6266  -27.4809  -37.9533 H   0  0  0  0  0  0  0  0  0  0  0  0  # atno 3847 bound_to 1247
  -12.9399  -23.8868  -40.2550 H   0  0  0  0  0  0  0  0  0  0  0  0  # atno 4507 bound_to 1931
   -2.6627  -33.9292  -36.7507 H   0  0  0  0  0  0  0  0  0  0  0  0  # atno 4531 bound_to 1957
  -10.8266  -37.3917  -33.2965 LP  0  0  0  0  0  0  0  0  0  0  0  0  # atno 5205 bound_to 1176
   -9.7533  -36.4017  -34.0276 LP  0  0  0  0  0  0  0  0  0  0  0  0  # atno 5206 bound_to 1176
  -14.8815  -28.9451  -37.2904 LP  0  0  0  0  0  0  0  0  0  0  0  0  # atno 5215 bound_to 1247
  -16.0603  -27.8154  -37.2599 LP  0  0  0  0  0  0  0  0  0  0  0  0  # atno 5216 bound_to 1247
  -12.5871  -24.5753  -38.8233 LP  0  0  0  0  0  0  0  0  0  0  0  0  # atno 5217 bound_to 1931
  -13.6687  -25.2769  -39.8256 LP  0  0  0  0  0  0  0  0  0  0  0  0  # atno 5218 bound_to 1931
  -11.0884  -22.7527  -31.1674 LP  0  0  0  0  0  0  0  0  0  0  0  0  # atno 5224 bound_to 1070
  -12.4525  -22.4480  -30.3232 LP  0  0  0  0  0  0  0  0  0  0  0  0  # atno 5225 bound_to 1070

$$$$
EZ_12|Lisa_paper2_min|sdf|1|dock7
  -GOLD-  10182016483D 1   1.00000     0.00000

 63 66  0  0  0  0  0  0  0  0  1 V2000
   -3.8014  -33.0764  -32.7558 C   0  0  0  0  0  0  0  0  0  0  0  0
   -4.6032  -33.0940  -31.6164 C   0  0  0  0  0  0  0  0  0  0  0  0
   -4.2162  -32.4061  -33.9103 C   0  0  0  0  0  0  0  0  0  0  0  0
   -5.8422  -32.4442  -31.5919 C   0  0  0  0  0  0  0  0  0  0  0  0
  -10.9737  -27.2260  -36.6950 C   0  0  0  0  0  0  0  0  0  0  0  0
  -16.5790  -25.3894  -37.6936 C   0  0  0  0  0  0  0  0  0  0  0  0
   -9.9494  -28.0451  -36.2200 C   0  0  0  0  0  0  0  0  0  0  0  0
  -17.8336  -25.3405  -38.3013 C   0  0  0  0  0  0  0  0  0  0  0  0
   -9.6309  -26.5581  -34.3426 C   0  0  0  0  0  0  0  0  0  0  0  0
  -15.8623  -23.5027  -39.0216 C   0  0  0  0  0  0  0  0  0  0  0  0
  -10.6551  -25.7389  -34.8177 C   0  0  0  0  0  0  0  0  0  0  0  0
   -5.4588  -31.7479  -33.9030 C   0  0  0  0  0  0  0  0  0  0  0  0
   -6.2506  -31.7742  -32.7543 C   0  0  0  0  0  0  0  0  0  0  0  0
  -15.5933  -24.4704  -38.0537 C   0  0  0  0  0  0  0  0  0  0  0  0
  -11.3264  -26.0728  -35.9938 C   0  0  0  0  0  0  0  0  0  0  0  0
   -9.2780  -27.7112  -35.0439 C   0  0  0  0  0  0  0  0  0  0  0  0
  -18.1025  -24.3727  -39.2691 C   0  0  0  0  0  0  0  0  0  0  0  0
  -17.1168  -23.4538  -39.6293 C   0  0  0  0  0  0  0  0  0  0  0  0
   -7.2031  -30.6307  -34.3898 C   0  0  0  0  0  0  0  0  0  0  0  0
   -8.4874  -30.7743  -32.2653 C   0  0  0  0  0  0  0  0  0  0  0  0
  -13.5759  -25.6560  -37.0827 C   0  0  0  0  0  0  0  0  0  0  0  0
  -11.0114  -24.5100  -34.0459 C   0  0  0  0  0  0  0  0  0  0  0  0
  -11.6466  -29.3151  -33.3911 C   0  0  0  0  0  0  0  0  0  0  0  0
  -11.1257  -31.6265  -32.5573 C   0  0  0  0  0  0  0  0  0  0  0  0
  -10.8151  -29.6498  -31.0393 C   0  0  0  0  0  0  0  0  0  0  0  0
   -8.1764  -29.8160  -35.1531 C   0  0  0  0  0  0  0  0  0  0  0  0
  -10.7457  -30.1493  -32.4816 C   0  0  0  0  0  0  0  0  0  0  0  0
   -6.0657  -31.0363  -34.9025 N   0  0  0  0  0  0  0  0  0  0  0  0
   -7.3848  -31.0419  -33.0845 N   0  0  0  0  0  0  0  0  0  0  0  0
  -14.3211  -24.5200  -37.4366 N   0  0  0  0  0  0  0  0  0  0  0  0
  -12.3536  -25.2642  -36.4868 N   0  0  0  0  0  0  0  0  0  0  0  0
   -8.5441  -31.1902  -31.1199 O   0  0  0  0  0  0  0  0  0  0  0  0
  -13.9264  -26.8182  -37.2608 O   0  0  0  0  0  0  0  0  0  0  0  0
   -8.2735  -28.5152  -34.5776 O   0  0  0  0  0  0  0  0  0  0  0  0
   -9.3965  -30.0273  -32.9415 O   0  0  0  0  0  0  0  0  0  0  0  0
  -19.6748  -24.3659  -39.9874 Cl  0  0  0  0  0  0  0  0  0  0  0  0
  -17.3888  -22.2331  -40.8229 Cl  0  0  0  0  0  0  0  0  0  0  0  0
   -2.8434  -33.5891  -32.7486 H   0  0  0  0  0  0  0  0  0  0  0  0
   -4.2612  -33.6221  -30.7297 H   0  0  0  0  0  0  0  0  0  0  0  0
   -3.5864  -32.3970  -34.7946 H   0  0  0  0  0  0  0  0  0  0  0  0
   -6.4469  -32.4730  -30.6932 H   0  0  0  0  0  0  0  0  0  0  0  0
  -11.4890  -27.4958  -37.6135 H   0  0  0  0  0  0  0  0  0  0  0  0
  -16.3803  -26.1466  -36.9394 H   0  0  0  0  0  0  0  0  0  0  0  0
   -9.6795  -28.9422  -36.7705 H   0  0  0  0  0  0  0  0  0  0  0  0
  -18.5902  -26.0637  -38.0071 H   0  0  0  0  0  0  0  0  0  0  0  0
   -9.1053  -26.3003  -33.4263 H   0  0  0  0  0  0  0  0  0  0  0  0
  -15.0888  -22.7894  -39.2993 H   0  0  0  0  0  0  0  0  0  0  0  0
  -11.9849  -24.6372  -33.5590 H   0  0  0  0  0  0  0  0  0  0  0  0
  -10.2603  -24.2946  -33.2764 H   0  0  0  0  0  0  0  0  0  0  0  0
  -11.0593  -23.6316  -34.7009 H   0  0  0  0  0  0  0  0  0  0  0  0
  -11.4069  -28.2492  -33.3056 H   0  0  0  0  0  0  0  0  0  0  0  0
  -11.5457  -29.6111  -34.4404 H   0  0  0  0  0  0  0  0  0  0  0  0
  -12.6986  -29.4194  -33.1017 H   0  0  0  0  0  0  0  0  0  0  0  0
  -12.1881  -31.7683  -32.3286 H   0  0  0  0  0  0  0  0  0  0  0  0
  -10.5695  -32.2110  -31.8154 H   0  0  0  0  0  0  0  0  0  0  0  0
  -10.9257  -32.0449  -33.5490 H   0  0  0  0  0  0  0  0  0  0  0  0
  -10.5219  -30.4391  -30.3375 H   0  0  0  0  0  0  0  0  0  0  0  0
  -10.1621  -28.7856  -30.8799 H   0  0  0  0  0  0  0  0  0  0  0  0
  -11.8399  -29.3655  -30.7742 H   0  0  0  0  0  0  0  0  0  0  0  0
   -7.8796  -29.7033  -36.2089 H   0  0  0  0  0  0  0  0  0  0  0  0
   -9.1802  -30.2716  -35.1494 H   0  0  0  0  0  0  0  0  0  0  0  0
  -13.8938  -23.6223  -37.2231 H   0  0  0  0  0  0  0  0  0  0  0  0
  -12.2137  -24.2520  -36.4112 H   0  0  0  0  0  0  0  0  0  0  0  0
  1  2  2  0  0  0  0
  1  3  1  0  0  0  0
  2  4  1  0  0  0  0
  3 12  2  0  0  0  0
  4 13  2  0  0  0  0
  5  7  1  0  0  0  0
  5 15  2  0  0  0  0
  6  8  1  0  0  0  0
  6 14  2  0  0  0  0
  7 16  2  0  0  0  0
  8 17  2  0  0  0  0
  9 11  2  0  0  0  0
  9 16  1  0  0  0  0
 10 14  1  0  0  0  0
 10 18  2  0  0  0  0
 11 15  1  0  0  0  0
 11 22  1  0  0  0  0
 12 13  1  0  0  0  0
 12 28  1  0  0  0  0
 13 29  1  0  0  0  0
 14 30  1  0  0  0  0
 15 31  1  0  0  0  0
 16 34  1  0  0  0  0
 17 18  1  0  0  0  0
 17 36  1  0  0  0  0
 18 37  1  0  0  0  0
 19 26  1  0  0  0  0
 19 28  2  0  0  0  0
 19 29  1  0  0  0  0
 20 29  1  0  0  0  0
 20 32  2  0  0  0  0
 20 35  1  0  0  0  0
 21 30  1  0  0  0  0
 21 31  1  0  0  0  0
 21 33  2  0  0  0  0
 23 27  1  0  0  0  0
 24 27  1  0  0  0  0
 25 27  1  0  0  0  0
 26 34  1  0  0  0  0
 27 35  1  0  0  0  0
  1 38  1  0  0  0  0
  2 39  1  0  0  0  0
  3 40  1  0  0  0  0
  4 41  1  0  0  0  0
  5 42  1  0  0  0  0
  6 43  1  0  0  0  0
  7 44  1  0  0  0  0
  8 45  1  0  0  0  0
  9 46  1  0  0  0  0
 10 47  1  0  0  0  0
 22 48  1  0  0  0  0
 22 49  1  0  0  0  0
 22 50  1  0  0  0  0
 23 51  1  0  0  0  0
 23 52  1  0  0  0  0
 23 53  1  0  0  0  0
 24 54  1  0  0  0  0
 24 55  1  0  0  0  0
 24 56  1  0  0  0  0
 25 57  1  0  0  0  0
 25 58  1  0  0  0  0
 25 59  1  0  0  0  0
 26 60  1  0  0  0  0
 26 61  1  0  0  0  0
 30 62  1  0  0  0  0
 31 63  1  0  0  0  0
M  END
> <SourceTag>
EZ_12

> <Clean Energy>
28.3989

> <Activity_sEH>
0.7

> <Activity_FLAP>
3.7

> <Gold.Version>
5.2

> <Gold.Id.Protein>
6HGV|6HGV_protein|mol2

> <Gold.Goldscore.Fitness>
79.5482

> <Gold.Goldscore.Internal.Vdw>
-12.6281

> <Gold.Goldscore.Internal.Torsion>
-9.7309

> <Gold.Goldscore.External.Vdw>
56.7049

> <Gold.Goldscore.Internal.HBond>
0.0000

> <Gold.Goldscore.External.HBond>
5.2426

> <Gold.Goldscore.Internal.Correction>
-18.6954

> <Gold.Goldscore.Hbonds>
donor molecule, donor type, donor heavy atom, donor atom, acceptor molecule, acceptor atom, score
      P1  H  1247  3847       L1    33  0.02
      L1  H    30    62       P1   854  0.56
      L1  H    31    63       P1   854  0.31

> <Gold.Goldscore.Internal.Vdw.Weighted>
-12.6281

> <Gold.Goldscore.Internal.Torsion.Weighted>
-9.7309

> <Gold.Goldscore.External.Vdw.Weighted>
77.9692

> <Gold.Goldscore.Internal.HBond.Weighted>
0.0000

> <Gold.Goldscore.External.HBond.Weighted>
5.2426

> <Gold.Goldscore.Internal.Correction.Weighted>
-18.6954

> <Gold.Protein.RotatedTorsions>
[ 3781 1176 1175 1172 ] final -141.90 input   60.00 | X-H torsion
[ 3847 1247 1246 1244 ] final  142.15 input   60.00 | X-H torsion
[ 4507 1931 1930 1928 ] final  -80.05 input   60.00 | X-H torsion
[ 3677 1070 1069 1066 ] final   33.05 input   60.00 | X-H torsion
[ 3525  925  924  922 ] final   35.78 input   59.99 | X-H torsion
[ 4531 1957 1955 1953 ] final   75.26 input   60.00 | X-H torsion

> <Gold.Protein.ActiveResidues>
 PHE267  PRO268  MET310  ASP335  TRP336  MET339  TYR343  THR360  PRO361  ILE363 
 PRO371  SER374  ILE375  ASN378  PHE381  TYR383  GLN384  PHE387  LEU408  LEU417 
 MET419  LEU428  TYR466  MET469  ASN472  ASP496  VAL498  LEU499  MET503  HIS524 
 TRP525 

> <Gold.Protein.RotatedAtoms>
   -3.1641  -29.7031  -30.8201 H   0  0  0  0  0  0  0  0  0  0  0  0  # atno 3525 bound_to 925 
  -12.7071  -22.7832  -30.3859 H   0  0  0  0  0  0  0  0  0  0  0  0  # atno 3677 bound_to 1070
   -9.3019  -36.3244  -33.4383 H   0  0  0  0  0  0  0  0  0  0  0  0  # atno 3781 bound_to 1176
  -14.3433  -27.9508  -37.8847 H   0  0  0  0  0  0  0  0  0  0  0  0  # atno 3847 bound_to 1247
  -13.6902  -25.0222  -40.1729 H   0  0  0  0  0  0  0  0  0  0  0  0  # atno 4507 bound_to 1931
   -2.9529  -33.6401  -36.6905 H   0  0  0  0  0  0  0  0  0  0  0  0  # atno 4531 bound_to 1957
  -10.1433  -37.2668  -32.4126 LP  0  0  0  0  0  0  0  0  0  0  0  0  # atno 5205 bound_to 1176
  -10.6707  -37.0458  -33.9422 LP  0  0  0  0  0  0  0  0  0  0  0  0  # atno 5206 bound_to 1176
  -15.4036  -28.9046  -37.1010 LP  0  0  0  0  0  0  0  0  0  0  0  0  # atno 5215 bound_to 1247
  -15.8235  -27.3827  -37.5184 LP  0  0  0  0  0  0  0  0  0  0  0  0  # atno 5216 bound_to 1247
  -12.6749  -23.7731  -39.9342 LP  0  0  0  0  0  0  0  0  0  0  0  0  # atno 5217 bound_to 1931
  -12.8252  -24.9357  -38.7973 LP  0  0  0  0  0  0  0  0  0  0  0  0  # atno 5218 bound_to 1931
  -11.9295  -23.8251  -31.3646 LP  0  0  0  0  0  0  0  0  0  0  0  0  # atno 5224 bound_to 1070
  -11.2121  -22.4268  -30.9210 LP  0  0  0  0  0  0  0  0  0  0  0  0  # atno 5225 bound_to 1070

$$$$
EZ_12|Lisa_paper2_min|sdf|1|dock9
  -GOLD-  10182016493D 1   1.00000     0.00000

 63 66  0  0  0  0  0  0  0  0  1 V2000
   -3.7880  -32.8416  -32.9884 C   0  0  0  0  0  0  0  0  0  0  0  0
   -4.5563  -32.8662  -31.8263 C   0  0  0  0  0  0  0  0  0  0  0  0
   -4.2583  -32.2074  -34.1420 C   0  0  0  0  0  0  0  0  0  0  0  0
   -5.8164  -32.2595  -31.7776 C   0  0  0  0  0  0  0  0  0  0  0  0
  -11.3821  -27.2907  -36.5907 C   0  0  0  0  0  0  0  0  0  0  0  0
  -15.7468  -24.8528  -39.4080 C   0  0  0  0  0  0  0  0  0  0  0  0
  -10.2536  -28.0459  -36.2714 C   0  0  0  0  0  0  0  0  0  0  0  0
  -16.8391  -24.7177  -40.2647 C   0  0  0  0  0  0  0  0  0  0  0  0
   -9.7875  -26.5660  -34.4193 C   0  0  0  0  0  0  0  0  0  0  0  0
  -17.0955  -24.0661  -37.5643 C   0  0  0  0  0  0  0  0  0  0  0  0
  -10.9159  -25.8108  -34.7389 C   0  0  0  0  0  0  0  0  0  0  0  0
   -5.5228  -31.5929  -34.1105 C   0  0  0  0  0  0  0  0  0  0  0  0
   -6.2806  -31.6255  -32.9392 C   0  0  0  0  0  0  0  0  0  0  0  0
  -15.8750  -24.5271  -38.0577 C   0  0  0  0  0  0  0  0  0  0  0  0
  -11.7131  -26.1731  -35.8245 C   0  0  0  0  0  0  0  0  0  0  0  0
   -9.4563  -27.6836  -35.1857 C   0  0  0  0  0  0  0  0  0  0  0  0
  -18.0597  -24.2567  -39.7713 C   0  0  0  0  0  0  0  0  0  0  0  0
  -18.1878  -23.9309  -38.4211 C   0  0  0  0  0  0  0  0  0  0  0  0
   -7.3184  -30.5461  -34.5663 C   0  0  0  0  0  0  0  0  0  0  0  0
   -8.5367  -30.6953  -32.4037 C   0  0  0  0  0  0  0  0  0  0  0  0
  -13.7745  -25.6580  -37.2047 C   0  0  0  0  0  0  0  0  0  0  0  0
  -11.2460  -24.6187  -33.9005 C   0  0  0  0  0  0  0  0  0  0  0  0
  -10.8252  -29.5895  -31.1100 C   0  0  0  0  0  0  0  0  0  0  0  0
  -11.7438  -29.2969  -33.4295 C   0  0  0  0  0  0  0  0  0  0  0  0
  -11.2098  -31.5982  -32.5769 C   0  0  0  0  0  0  0  0  0  0  0  0
   -8.3408  -29.7799  -35.3155 C   0  0  0  0  0  0  0  0  0  0  0  0
  -10.8148  -30.1226  -32.5420 C   0  0  0  0  0  0  0  0  0  0  0  0
   -6.1822  -30.9213  -35.1043 N   0  0  0  0  0  0  0  0  0  0  0  0
   -7.4488  -30.9394  -33.2494 N   0  0  0  0  0  0  0  0  0  0  0  0
  -14.7668  -24.6650  -37.1888 N   0  0  0  0  0  0  0  0  0  0  0  0
  -12.8461  -25.4284  -36.1616 N   0  0  0  0  0  0  0  0  0  0  0  0
   -8.5466  -31.0919  -31.2501 O   0  0  0  0  0  0  0  0  0  0  0  0
  -13.7151  -26.5890  -38.0016 O   0  0  0  0  0  0  0  0  0  0  0  0
   -8.3496  -28.4249  -34.8720 O   0  0  0  0  0  0  0  0  0  0  0  0
   -9.4901  -29.9930  -33.0664 O   0  0  0  0  0  0  0  0  0  0  0  0
  -19.3746  -24.1079  -40.8836 Cl  0  0  0  0  0  0  0  0  0  0  0  0
  -19.6730  -23.3527  -37.7510 Cl  0  0  0  0  0  0  0  0  0  0  0  0
   -2.8126  -33.3204  -32.9997 H   0  0  0  0  0  0  0  0  0  0  0  0
   -4.1712  -33.3657  -30.9408 H   0  0  0  0  0  0  0  0  0  0  0  0
   -3.6543  -32.1926  -35.0439 H   0  0  0  0  0  0  0  0  0  0  0  0
   -6.3941  -32.2929  -30.8615 H   0  0  0  0  0  0  0  0  0  0  0  0
  -11.9953  -27.5822  -37.4400 H   0  0  0  0  0  0  0  0  0  0  0  0
  -14.8006  -25.2144  -39.8023 H   0  0  0  0  0  0  0  0  0  0  0  0
  -10.0012  -28.9156  -36.8718 H   0  0  0  0  0  0  0  0  0  0  0  0
  -16.7214  -24.9777  -41.3138 H   0  0  0  0  0  0  0  0  0  0  0  0
   -9.1637  -26.2859  -33.5739 H   0  0  0  0  0  0  0  0  0  0  0  0
  -17.1889  -23.8122  -36.5103 H   0  0  0  0  0  0  0  0  0  0  0  0
  -11.3296  -23.7248  -34.5289 H   0  0  0  0  0  0  0  0  0  0  0  0
  -12.1930  -24.7611  -33.3660 H   0  0  0  0  0  0  0  0  0  0  0  0
  -10.4738  -24.4427  -33.1418 H   0  0  0  0  0  0  0  0  0  0  0  0
  -11.8308  -29.2617  -30.8236 H   0  0  0  0  0  0  0  0  0  0  0  0
  -10.4896  -30.3477  -30.3949 H   0  0  0  0  0  0  0  0  0  0  0  0
  -10.1752  -28.7121  -31.0147 H   0  0  0  0  0  0  0  0  0  0  0  0
  -11.5179  -28.2280  -33.3429 H   0  0  0  0  0  0  0  0  0  0  0  0
  -12.7883  -29.4177  -33.1202 H   0  0  0  0  0  0  0  0  0  0  0  0
  -11.6584  -29.5852  -34.4822 H   0  0  0  0  0  0  0  0  0  0  0  0
  -11.2049  -31.9802  -33.6042 H   0  0  0  0  0  0  0  0  0  0  0  0
  -10.5301  -32.2119  -31.9768 H   0  0  0  0  0  0  0  0  0  0  0  0
  -12.2295  -31.7378  -32.2001 H   0  0  0  0  0  0  0  0  0  0  0  0
   -8.1453  -29.7851  -36.4004 H   0  0  0  0  0  0  0  0  0  0  0  0
   -9.3504  -30.1979  -35.1699 H   0  0  0  0  0  0  0  0  0  0  0  0
  -14.6782  -23.9578  -36.4635 H   0  0  0  0  0  0  0  0  0  0  0  0
  -13.0400  -24.6053  -35.5829 H   0  0  0  0  0  0  0  0  0  0  0  0
  1  2  2  0  0  0  0
  1  3  1  0  0  0  0
  2  4  1  0  0  0  0
  3 12  2  0  0  0  0
  4 13  2  0  0  0  0
  5  7  1  0  0  0  0
  5 15  2  0  0  0  0
  6  8  1  0  0  0  0
  6 14  2  0  0  0  0
  7 16  2  0  0  0  0
  8 17  2  0  0  0  0
  9 11  2  0  0  0  0
  9 16  1  0  0  0  0
 10 14  1  0  0  0  0
 10 18  2  0  0  0  0
 11 15  1  0  0  0  0
 11 22  1  0  0  0  0
 12 13  1  0  0  0  0
 12 28  1  0  0  0  0
 13 29  1  0  0  0  0
 14 30  1  0  0  0  0
 15 31  1  0  0  0  0
 16 34  1  0  0  0  0
 17 18  1  0  0  0  0
 17 36  1  0  0  0  0
 18 37  1  0  0  0  0
 19 26  1  0  0  0  0
 19 28  2  0  0  0  0
 19 29  1  0  0  0  0
 20 29  1  0  0  0  0
 20 32  2  0  0  0  0
 20 35  1  0  0  0  0
 21 30  1  0  0  0  0
 21 31  1  0  0  0  0
 21 33  2  0  0  0  0
 23 27  1  0  0  0  0
 24 27  1  0  0  0  0
 25 27  1  0  0  0  0
 26 34  1  0  0  0  0
 27 35  1  0  0  0  0
  1 38  1  0  0  0  0
  2 39  1  0  0  0  0
  3 40  1  0  0  0  0
  4 41  1  0  0  0  0
  5 42  1  0  0  0  0
  6 43  1  0  0  0  0
  7 44  1  0  0  0  0
  8 45  1  0  0  0  0
  9 46  1  0  0  0  0
 10 47  1  0  0  0  0
 22 48  1  0  0  0  0
 22 49  1  0  0  0  0
 22 50  1  0  0  0  0
 23 51  1  0  0  0  0
 23 52  1  0  0  0  0
 23 53  1  0  0  0  0
 24 54  1  0  0  0  0
 24 55  1  0  0  0  0
 24 56  1  0  0  0  0
 25 57  1  0  0  0  0
 25 58  1  0  0  0  0
 25 59  1  0  0  0  0
 26 60  1  0  0  0  0
 26 61  1  0  0  0  0
 30 62  1  0  0  0  0
 31 63  1  0  0  0  0
M  END
> <SourceTag>
EZ_12

> <Clean Energy>
28.3989

> <Activity_sEH>
0.7

> <Activity_FLAP>
3.7

> <Gold.Version>
5.2

> <Gold.Id.Protein>
6HGV|6HGV_protein|mol2

> <Gold.Goldscore.Fitness>
79.2928

> <Gold.Goldscore.Internal.Vdw>
-18.2158

> <Gold.Goldscore.Internal.Torsion>
-7.2170

> <Gold.Goldscore.External.Vdw>
57.0740

> <Gold.Goldscore.Internal.HBond>
0.0000

> <Gold.Goldscore.External.HBond>
7.5535

> <Gold.Goldscore.Internal.Correction>
-18.6954

> <Gold.Goldscore.Hbonds>
donor molecule, donor type, donor heavy atom, donor atom, acceptor molecule, acceptor atom, score
      L1  H    30    62       P1   853  0.80
      L1  H    31    63       P1   853  0.46

> <Gold.Goldscore.Internal.Vdw.Weighted>
-18.2158

> <Gold.Goldscore.Internal.Torsion.Weighted>
-7.2170

> <Gold.Goldscore.External.Vdw.Weighted>
78.4768

> <Gold.Goldscore.Internal.HBond.Weighted>
0.0000

> <Gold.Goldscore.External.HBond.Weighted>
7.5535

> <Gold.Goldscore.Internal.Correction.Weighted>
-18.6954

> <Gold.Protein.RotatedTorsions>
[ 3781 1176 1175 1172 ] final  124.29 input   60.00 | X-H torsion
[ 3847 1247 1246 1244 ] final  -74.97 input   60.00 | X-H torsion
[ 4507 1931 1930 1928 ] final  110.17 input   60.00 | X-H torsion
[ 3677 1070 1069 1066 ] final -165.14 input   60.00 | X-H torsion
[ 3525  925  924  922 ] final   68.22 input   59.99 | X-H torsion
[ 4531 1957 1955 1953 ] final  111.92 input   60.00 | X-H torsion

> <Gold.Protein.ActiveResidues>
 PHE267  PRO268  MET310  ASP335  TRP336  MET339  TYR343  THR360  PRO361  ILE363 
 PRO371  SER374  ILE375  ASN378  PHE381  TYR383  GLN384  PHE387  LEU408  LEU417 
 MET419  LEU428  TYR466  MET469  ASN472  ASP496  VAL498  LEU499  MET503  HIS524 
 TRP525 

> <Gold.Protein.RotatedAtoms>
   -2.6844  -29.9100  -30.8457 H   0  0  0  0  0  0  0  0  0  0  0  0  # atno 3525 bound_to 925 
  -11.1038  -22.9790  -31.2858 H   0  0  0  0  0  0  0  0  0  0  0  0  # atno 3677 bound_to 1070
   -9.7830  -37.0422  -32.3788 H   0  0  0  0  0  0  0  0  0  0  0  0  # atno 3781 bound_to 1176
  -16.0081  -27.6558  -37.3442 H   0  0  0  0  0  0  0  0  0  0  0  0  # atno 3847 bound_to 1247
  -12.4320  -24.0243  -39.2248 H   0  0  0  0  0  0  0  0  0  0  0  0  # atno 4507 bound_to 1931
   -2.5029  -34.0086  -36.7824 H   0  0  0  0  0  0  0  0  0  0  0  0  # atno 4531 bound_to 1957
  -10.8211  -37.2702  -33.6111 LP  0  0  0  0  0  0  0  0  0  0  0  0  # atno 5205 bound_to 1176
   -9.5084  -36.3196  -33.8107 LP  0  0  0  0  0  0  0  0  0  0  0  0  # atno 5206 bound_to 1176
  -14.4978  -27.6176  -37.9488 LP  0  0  0  0  0  0  0  0  0  0  0  0  # atno 5215 bound_to 1247
  -15.0527  -28.9667  -37.2149 LP  0  0  0  0  0  0  0  0  0  0  0  0  # atno 5216 bound_to 1247
  -13.3607  -25.3603  -39.2008 LP  0  0  0  0  0  0  0  0  0  0  0  0  # atno 5217 bound_to 1931
  -13.4066  -24.3535  -40.4856 LP  0  0  0  0  0  0  0  0  0  0  0  0  # atno 5218 bound_to 1931
  -12.2432  -22.3009  -30.3423 LP  0  0  0  0  0  0  0  0  0  0  0  0  # atno 5224 bound_to 1070
  -12.5130  -23.7538  -31.0371 LP  0  0  0  0  0  0  0  0  0  0  0  0  # atno 5225 bound_to 1070

$$$$
EZ_12|Lisa_paper2_min|sdf|1|dock2
  -GOLD-  10182016473D 1   1.00000     0.00000

 63 66  0  0  0  0  0  0  0  0  1 V2000
   -2.9319  -31.4895  -33.4133 C   0  0  0  0  0  0  0  0  0  0  0  0
   -3.7331  -32.5182  -33.9040 C   0  0  0  0  0  0  0  0  0  0  0  0
   -3.4202  -30.1823  -33.3292 C   0  0  0  0  0  0  0  0  0  0  0  0
   -5.0454  -32.2766  -34.3257 C   0  0  0  0  0  0  0  0  0  0  0  0
  -11.5363  -27.2083  -37.1047 C   0  0  0  0  0  0  0  0  0  0  0  0
  -16.1350  -24.8113  -39.5924 C   0  0  0  0  0  0  0  0  0  0  0  0
  -10.3540  -27.9168  -36.8907 C   0  0  0  0  0  0  0  0  0  0  0  0
  -17.2819  -24.6922  -40.3773 C   0  0  0  0  0  0  0  0  0  0  0  0
   -9.7653  -26.3961  -35.1080 C   0  0  0  0  0  0  0  0  0  0  0  0
  -17.4116  -24.2000  -37.6344 C   0  0  0  0  0  0  0  0  0  0  0  0
  -10.9475  -25.6874  -35.3221 C   0  0  0  0  0  0  0  0  0  0  0  0
   -4.7368  -29.9218  -33.7490 C   0  0  0  0  0  0  0  0  0  0  0  0
   -5.5273  -30.9626  -34.2380 C   0  0  0  0  0  0  0  0  0  0  0  0
  -16.1999  -24.5653  -38.2209 C   0  0  0  0  0  0  0  0  0  0  0  0
  -11.8329  -26.0935  -36.3204 C   0  0  0  0  0  0  0  0  0  0  0  0
   -9.4684  -27.5108  -35.8924 C   0  0  0  0  0  0  0  0  0  0  0  0
  -18.4936  -24.3269  -39.7908 C   0  0  0  0  0  0  0  0  0  0  0  0
  -18.5584  -24.0808  -38.4193 C   0  0  0  0  0  0  0  0  0  0  0  0
   -6.6057  -29.0321  -34.2420 C   0  0  0  0  0  0  0  0  0  0  0  0
   -7.8774  -30.9955  -35.0854 C   0  0  0  0  0  0  0  0  0  0  0  0
  -13.9966  -25.6217  -37.5515 C   0  0  0  0  0  0  0  0  0  0  0  0
  -11.2390  -24.4973  -34.4669 C   0  0  0  0  0  0  0  0  0  0  0  0
   -9.4229  -33.0650  -33.8382 C   0  0  0  0  0  0  0  0  0  0  0  0
   -9.7644  -32.6442  -36.2909 C   0  0  0  0  0  0  0  0  0  0  0  0
   -8.3676  -34.5913  -35.5386 C   0  0  0  0  0  0  0  0  0  0  0  0
   -7.6692  -28.0170  -34.4220 C   0  0  0  0  0  0  0  0  0  0  0  0
   -8.7951  -33.1576  -35.2282 C   0  0  0  0  0  0  0  0  0  0  0  0
   -5.4218  -28.7369  -33.7600 N   0  0  0  0  0  0  0  0  0  0  0  0
   -6.7435  -30.3695  -34.5557 N   0  0  0  0  0  0  0  0  0  0  0  0
  -15.0365  -24.6869  -37.4249 N   0  0  0  0  0  0  0  0  0  0  0  0
  -13.0211  -25.3958  -36.5515 N   0  0  0  0  0  0  0  0  0  0  0  0
   -8.8959  -30.3683  -35.3256 O   0  0  0  0  0  0  0  0  0  0  0  0
  -13.9363  -26.5053  -38.4005 O   0  0  0  0  0  0  0  0  0  0  0  0
   -8.3088  -28.2064  -35.6821 O   0  0  0  0  0  0  0  0  0  0  0  0
   -7.6363  -32.3193  -35.2610 O   0  0  0  0  0  0  0  0  0  0  0  0
  -19.8781  -24.1932  -40.8171 Cl  0  0  0  0  0  0  0  0  0  0  0  0
  -20.0297  -23.6229  -37.6352 Cl  0  0  0  0  0  0  0  0  0  0  0  0
   -1.9161  -31.7039  -33.0923 H   0  0  0  0  0  0  0  0  0  0  0  0
   -3.3327  -33.5274  -33.9612 H   0  0  0  0  0  0  0  0  0  0  0  0
   -2.7900  -29.3857  -32.9461 H   0  0  0  0  0  0  0  0  0  0  0  0
   -5.6479  -33.0942  -34.7036 H   0  0  0  0  0  0  0  0  0  0  0  0
  -12.2182  -27.5335  -37.8865 H   0  0  0  0  0  0  0  0  0  0  0  0
  -15.1961  -25.0981  -40.0590 H   0  0  0  0  0  0  0  0  0  0  0  0
  -10.1287  -28.7846  -37.5047 H   0  0  0  0  0  0  0  0  0  0  0  0
  -17.2130  -24.8893  -41.4443 H   0  0  0  0  0  0  0  0  0  0  0  0
   -9.0727  -26.0817  -34.3309 H   0  0  0  0  0  0  0  0  0  0  0  0
  -17.4557  -24.0080  -36.5642 H   0  0  0  0  0  0  0  0  0  0  0  0
  -10.4098  -24.3165  -33.7736 H   0  0  0  0  0  0  0  0  0  0  0  0
  -11.3877  -23.5984  -35.0773 H   0  0  0  0  0  0  0  0  0  0  0  0
  -12.1569  -24.6440  -33.8846 H   0  0  0  0  0  0  0  0  0  0  0  0
  -10.3554  -33.6389  -33.7928 H   0  0  0  0  0  0  0  0  0  0  0  0
   -8.7457  -33.4400  -33.0639 H   0  0  0  0  0  0  0  0  0  0  0  0
   -9.6857  -32.0288  -33.5960 H   0  0  0  0  0  0  0  0  0  0  0  0
   -9.2230  -32.1571  -37.1100 H   0  0  0  0  0  0  0  0  0  0  0  0
  -10.4373  -31.8872  -35.8723 H   0  0  0  0  0  0  0  0  0  0  0  0
  -10.3709  -33.4539  -36.7094 H   0  0  0  0  0  0  0  0  0  0  0  0
   -7.5810  -34.9225  -34.8509 H   0  0  0  0  0  0  0  0  0  0  0  0
   -9.2086  -35.2882  -35.4630 H   0  0  0  0  0  0  0  0  0  0  0  0
   -7.9461  -34.6624  -36.5478 H   0  0  0  0  0  0  0  0  0  0  0  0
   -8.4371  -28.0818  -33.6337 H   0  0  0  0  0  0  0  0  0  0  0  0
   -7.2635  -26.9925  -34.3906 H   0  0  0  0  0  0  0  0  0  0  0  0
  -14.9419  -24.0146  -36.6679 H   0  0  0  0  0  0  0  0  0  0  0  0
  -13.2228  -24.6158  -35.9183 H   0  0  0  0  0  0  0  0  0  0  0  0
  1  2  2  0  0  0  0
  1  3  1  0  0  0  0
  2  4  1  0  0  0  0
  3 12  2  0  0  0  0
  4 13  2  0  0  0  0
  5  7  1  0  0  0  0
  5 15  2  0  0  0  0
  6  8  1  0  0  0  0
  6 14  2  0  0  0  0
  7 16  2  0  0  0  0
  8 17  2  0  0  0  0
  9 11  2  0  0  0  0
  9 16  1  0  0  0  0
 10 14  1  0  0  0  0
 10 18  2  0  0  0  0
 11 15  1  0  0  0  0
 11 22  1  0  0  0  0
 12 13  1  0  0  0  0
 12 28  1  0  0  0  0
 13 29  1  0  0  0  0
 14 30  1  0  0  0  0
 15 31  1  0  0  0  0
 16 34  1  0  0  0  0
 17 18  1  0  0  0  0
 17 36  1  0  0  0  0
 18 37  1  0  0  0  0
 19 26  1  0  0  0  0
 19 28  2  0  0  0  0
 19 29  1  0  0  0  0
 20 29  1  0  0  0  0
 20 32  2  0  0  0  0
 20 35  1  0  0  0  0
 21 30  1  0  0  0  0
 21 31  1  0  0  0  0
 21 33  2  0  0  0  0
 23 27  1  0  0  0  0
 24 27  1  0  0  0  0
 25 27  1  0  0  0  0
 26 34  1  0  0  0  0
 27 35  1  0  0  0  0
  1 38  1  0  0  0  0
  2 39  1  0  0  0  0
  3 40  1  0  0  0  0
  4 41  1  0  0  0  0
  5 42  1  0  0  0  0
  6 43  1  0  0  0  0
  7 44  1  0  0  0  0
  8 45  1  0  0  0  0
  9 46  1  0  0  0  0
 10 47  1  0  0  0  0
 22 48  1  0  0  0  0
 22 49  1  0  0  0  0
 22 50  1  0  0  0  0
 23 51  1  0  0  0  0
 23 52  1  0  0  0  0
 23 53  1  0  0  0  0
 24 54  1  0  0  0  0
 24 55  1  0  0  0  0
 24 56  1  0  0  0  0
 25 57  1  0  0  0  0
 25 58  1  0  0  0  0
 25 59  1  0  0  0  0
 26 60  1  0  0  0  0
 26 61  1  0  0  0  0
 30 62  1  0  0  0  0
 31 63  1  0  0  0  0
M  END
> <SourceTag>
EZ_12

> <Clean Energy>
28.3989

> <Activity_sEH>
0.7

> <Activity_FLAP>
3.7

> <Gold.Version>
5.2

> <Gold.Id.Protein>
6HGV|6HGV_protein|mol2

> <Gold.Goldscore.Fitness>
79.2586

> <Gold.Goldscore.Internal.Vdw>
-22.3032

> <Gold.Goldscore.Internal.Torsion>
-7.7228

> <Gold.Goldscore.External.Vdw>
58.8578

> <Gold.Goldscore.Internal.HBond>
0.0000

> <Gold.Goldscore.External.HBond>
8.3004

> <Gold.Goldscore.Internal.Correction>
-20.0547

> <Gold.Goldscore.Hbonds>
donor molecule, donor type, donor heavy atom, donor atom, acceptor molecule, acceptor atom, score
      L1  H    30    62       P1   853  0.63
      L1  H    31    63       P1   853  0.76

> <Gold.Goldscore.Internal.Vdw.Weighted>
-22.3032

> <Gold.Goldscore.Internal.Torsion.Weighted>
-7.7228

> <Gold.Goldscore.External.Vdw.Weighted>
80.9295

> <Gold.Goldscore.Internal.HBond.Weighted>
0.0000

> <Gold.Goldscore.External.HBond.Weighted>
8.3004

> <Gold.Goldscore.Internal.Correction.Weighted>
-20.0547

> <Gold.Protein.RotatedTorsions>
[ 3781 1176 1175 1172 ] final -151.28 input   60.00 | X-H torsion
[ 3847 1247 1246 1244 ] final  -78.65 input   60.00 | X-H torsion
[ 4507 1931 1930 1928 ] final  114.40 input   60.00 | X-H torsion
[ 3677 1070 1069 1066 ] final -123.46 input   60.00 | X-H torsion
[ 3525  925  924  922 ] final   -7.70 input   59.99 | X-H torsion
[ 4531 1957 1955 1953 ] final   -9.36 input   60.00 | X-H torsion

> <Gold.Protein.ActiveResidues>
 PHE267  PRO268  MET310  ASP335  TRP336  MET339  TYR343  THR360  PRO361  ILE363 
 PRO371  SER374  ILE375  ASN378  PHE381  TYR383  GLN384  PHE387  LEU408  LEU417 
 MET419  LEU428  TYR466  MET469  ASN472  ASP496  VAL498  LEU499  MET503  HIS524 
 TRP525 

> <Gold.Protein.RotatedAtoms>
   -3.6607  -29.5280  -30.3687 H   0  0  0  0  0  0  0  0  0  0  0  0  # atno 3525 bound_to 925 
  -11.4210  -23.5412  -31.4500 H   0  0  0  0  0  0  0  0  0  0  0  0  # atno 3677 bound_to 1070
   -9.2625  -36.3524  -33.2931 H   0  0  0  0  0  0  0  0  0  0  0  0  # atno 3781 bound_to 1176
  -15.9860  -27.6070  -37.3715 H   0  0  0  0  0  0  0  0  0  0  0  0  # atno 3847 bound_to 1247
  -12.4356  -23.9832  -39.2802 H   0  0  0  0  0  0  0  0  0  0  0  0  # atno 4507 bound_to 1931
   -2.7467  -32.3965  -36.7082 H   0  0  0  0  0  0  0  0  0  0  0  0  # atno 4531 bound_to 1957
  -10.2710  -37.3300  -32.4714 LP  0  0  0  0  0  0  0  0  0  0  0  0  # atno 5205 bound_to 1176
  -10.5828  -36.9544  -34.0297 LP  0  0  0  0  0  0  0  0  0  0  0  0  # atno 5206 bound_to 1176
  -14.4636  -27.6673  -37.9432 LP  0  0  0  0  0  0  0  0  0  0  0  0  # atno 5215 bound_to 1247
  -15.1092  -28.9662  -37.1930 LP  0  0  0  0  0  0  0  0  0  0  0  0  # atno 5216 bound_to 1247
  -13.3182  -25.3439  -39.1481 LP  0  0  0  0  0  0  0  0  0  0  0  0  # atno 5217 bound_to 1931
  -13.4454  -24.4112  -40.4824 LP  0  0  0  0  0  0  0  0  0  0  0  0  # atno 5218 bound_to 1931
  -11.6265  -22.1826  -30.5782 LP  0  0  0  0  0  0  0  0  0  0  0  0  # atno 5224 bound_to 1070
  -12.8103  -23.3059  -30.6359 LP  0  0  0  0  0  0  0  0  0  0  0  0  # atno 5225 bound_to 1070

$$$$
EZ_12|Lisa_paper2_min|sdf|1|dock10
  -GOLD-  10182016493D 1   1.00000     0.00000

 63 66  0  0  0  0  0  0  0  0  1 V2000
   -3.5465  -32.5870  -33.5266 C   0  0  0  0  0  0  0  0  0  0  0  0
   -4.2991  -32.7258  -32.3622 C   0  0  0  0  0  0  0  0  0  0  0  0
   -4.0527  -31.8851  -34.6244 C   0  0  0  0  0  0  0  0  0  0  0  0
   -5.5787  -32.1693  -32.2557 C   0  0  0  0  0  0  0  0  0  0  0  0
  -11.2531  -27.0051  -36.8285 C   0  0  0  0  0  0  0  0  0  0  0  0
  -15.7901  -24.7992  -39.5568 C   0  0  0  0  0  0  0  0  0  0  0  0
  -10.1283  -27.7558  -36.4866 C   0  0  0  0  0  0  0  0  0  0  0  0
  -16.8997  -24.7003  -40.3961 C   0  0  0  0  0  0  0  0  0  0  0  0
   -9.9233  -26.5104  -34.4265 C   0  0  0  0  0  0  0  0  0  0  0  0
  -17.1109  -23.9673  -37.7128 C   0  0  0  0  0  0  0  0  0  0  0  0
  -11.0480  -25.7596  -34.7684 C   0  0  0  0  0  0  0  0  0  0  0  0
   -5.3371  -31.3197  -34.5344 C   0  0  0  0  0  0  0  0  0  0  0  0
   -6.0788  -31.4668  -33.3616 C   0  0  0  0  0  0  0  0  0  0  0  0
  -15.8958  -24.4327  -38.2150 C   0  0  0  0  0  0  0  0  0  0  0  0
  -11.7128  -26.0069  -35.9694 C   0  0  0  0  0  0  0  0  0  0  0  0
   -9.4634  -27.5085  -35.2857 C   0  0  0  0  0  0  0  0  0  0  0  0
  -18.1149  -24.2348  -39.8939 C   0  0  0  0  0  0  0  0  0  0  0  0
  -18.2205  -23.8683  -38.5522 C   0  0  0  0  0  0  0  0  0  0  0  0
   -7.1732  -30.3057  -34.8925 C   0  0  0  0  0  0  0  0  0  0  0  0
   -8.3588  -30.6595  -32.7356 C   0  0  0  0  0  0  0  0  0  0  0  0
  -13.7965  -25.5450  -37.3349 C   0  0  0  0  0  0  0  0  0  0  0  0
  -11.5177  -24.6968  -33.8289 C   0  0  0  0  0  0  0  0  0  0  0  0
  -10.7538  -29.9550  -31.3887 C   0  0  0  0  0  0  0  0  0  0  0  0
  -11.6303  -29.3426  -33.6616 C   0  0  0  0  0  0  0  0  0  0  0  0
  -10.9608  -31.7142  -33.1767 C   0  0  0  0  0  0  0  0  0  0  0  0
   -8.2306  -29.5220  -35.5718 C   0  0  0  0  0  0  0  0  0  0  0  0
  -10.6697  -30.2424  -32.8870 C   0  0  0  0  0  0  0  0  0  0  0  0
   -6.0315  -30.5991  -35.4683 N   0  0  0  0  0  0  0  0  0  0  0  0
   -7.2737  -30.8010  -33.6078 N   0  0  0  0  0  0  0  0  0  0  0  0
  -14.7701  -24.5339  -37.3637 N   0  0  0  0  0  0  0  0  0  0  0  0
  -12.8398  -25.2643  -36.3305 N   0  0  0  0  0  0  0  0  0  0  0  0
   -8.3407  -31.1417  -31.6151 O   0  0  0  0  0  0  0  0  0  0  0  0
  -13.7727  -26.5281  -38.0685 O   0  0  0  0  0  0  0  0  0  0  0  0
   -8.3602  -28.2456  -34.9500 O   0  0  0  0  0  0  0  0  0  0  0  0
   -9.3440  -29.9436  -33.3342 O   0  0  0  0  0  0  0  0  0  0  0  0
  -19.4519  -24.1322  -40.9848 Cl  0  0  0  0  0  0  0  0  0  0  0  0
  -19.6980  -23.2825  -37.8718 Cl  0  0  0  0  0  0  0  0  0  0  0  0
   -2.5555  -33.0289  -33.5834 H   0  0  0  0  0  0  0  0  0  0  0  0
   -3.8861  -33.2764  -31.5207 H   0  0  0  0  0  0  0  0  0  0  0  0
   -3.4607  -31.7813  -35.5285 H   0  0  0  0  0  0  0  0  0  0  0  0
   -6.1436  -32.2917  -31.3391 H   0  0  0  0  0  0  0  0  0  0  0  0
  -11.7625  -27.2061  -37.7678 H   0  0  0  0  0  0  0  0  0  0  0  0
  -14.8482  -25.1646  -39.9578 H   0  0  0  0  0  0  0  0  0  0  0  0
   -9.7753  -28.5323  -37.1598 H   0  0  0  0  0  0  0  0  0  0  0  0
  -16.7995  -24.9917  -41.4388 H   0  0  0  0  0  0  0  0  0  0  0  0
   -9.4025  -26.3197  -33.4912 H   0  0  0  0  0  0  0  0  0  0  0  0
  -17.1868  -23.6816  -36.6655 H   0  0  0  0  0  0  0  0  0  0  0  0
  -11.4994  -23.7189  -34.3231 H   0  0  0  0  0  0  0  0  0  0  0  0
  -12.5397  -24.8965  -33.4849 H   0  0  0  0  0  0  0  0  0  0  0  0
  -10.8829  -24.6499  -32.9356 H   0  0  0  0  0  0  0  0  0  0  0  0
  -10.0465  -29.1684  -31.1025 H   0  0  0  0  0  0  0  0  0  0  0  0
  -11.7605  -29.6414  -31.0939 H   0  0  0  0  0  0  0  0  0  0  0  0
  -10.4826  -30.8419  -30.8045 H   0  0  0  0  0  0  0  0  0  0  0  0
  -12.6719  -29.6029  -33.4416 H   0  0  0  0  0  0  0  0  0  0  0  0
  -11.5011  -29.4726  -34.7422 H   0  0  0  0  0  0  0  0  0  0  0  0
  -11.4783  -28.2858  -33.4189 H   0  0  0  0  0  0  0  0  0  0  0  0
  -10.2474  -32.3637  -32.6565 H   0  0  0  0  0  0  0  0  0  0  0  0
  -11.9728  -31.9938  -32.8661 H   0  0  0  0  0  0  0  0  0  0  0  0
  -10.8526  -31.9298  -34.2458 H   0  0  0  0  0  0  0  0  0  0  0  0
   -8.0031  -29.3630  -36.6387 H   0  0  0  0  0  0  0  0  0  0  0  0
   -9.2076  -30.0303  -35.5249 H   0  0  0  0  0  0  0  0  0  0  0  0
  -14.6518  -23.7817  -36.6898 H   0  0  0  0  0  0  0  0  0  0  0  0
  -13.0052  -24.4008  -35.8043 H   0  0  0  0  0  0  0  0  0  0  0  0
  1  2  2  0  0  0  0
  1  3  1  0  0  0  0
  2  4  1  0  0  0  0
  3 12  2  0  0  0  0
  4 13  2  0  0  0  0
  5  7  1  0  0  0  0
  5 15  2  0  0  0  0
  6  8  1  0  0  0  0
  6 14  2  0  0  0  0
  7 16  2  0  0  0  0
  8 17  2  0  0  0  0
  9 11  2  0  0  0  0
  9 16  1  0  0  0  0
 10 14  1  0  0  0  0
 10 18  2  0  0  0  0
 11 15  1  0  0  0  0
 11 22  1  0  0  0  0
 12 13  1  0  0  0  0
 12 28  1  0  0  0  0
 13 29  1  0  0  0  0
 14 30  1  0  0  0  0
 15 31  1  0  0  0  0
 16 34  1  0  0  0  0
 17 18  1  0  0  0  0
 17 36  1  0  0  0  0
 18 37  1  0  0  0  0
 19 26  1  0  0  0  0
 19 28  2  0  0  0  0
 19 29  1  0  0  0  0
 20 29  1  0  0  0  0
 20 32  2  0  0  0  0
 20 35  1  0  0  0  0
 21 30  1  0  0  0  0
 21 31  1  0  0  0  0
 21 33  2  0  0  0  0
 23 27  1  0  0  0  0
 24 27  1  0  0  0  0
 25 27  1  0  0  0  0
 26 34  1  0  0  0  0
 27 35  1  0  0  0  0
  1 38  1  0  0  0  0
  2 39  1  0  0  0  0
  3 40  1  0  0  0  0
  4 41  1  0  0  0  0
  5 42  1  0  0  0  0
  6 43  1  0  0  0  0
  7 44  1  0  0  0  0
  8 45  1  0  0  0  0
  9 46  1  0  0  0  0
 10 47  1  0  0  0  0
 22 48  1  0  0  0  0
 22 49  1  0  0  0  0
 22 50  1  0  0  0  0
 23 51  1  0  0  0  0
 23 52  1  0  0  0  0
 23 53  1  0  0  0  0
 24 54  1  0  0  0  0
 24 55  1  0  0  0  0
 24 56  1  0  0  0  0
 25 57  1  0  0  0  0
 25 58  1  0  0  0  0
 25 59  1  0  0  0  0
 26 60  1  0  0  0  0
 26 61  1  0  0  0  0
 30 62  1  0  0  0  0
 31 63  1  0  0  0  0
M  END
> <SourceTag>
EZ_12

> <Clean Energy>
28.3989

> <Activity_sEH>
0.7

> <Activity_FLAP>
3.7

> <Gold.Version>
5.2

> <Gold.Id.Protein>
6HGV|6HGV_protein|mol2

> <Gold.Goldscore.Fitness>
77.7469

> <Gold.Goldscore.Internal.Vdw>
-14.8374

> <Gold.Goldscore.Internal.Torsion>
-8.8896

> <Gold.Goldscore.External.Vdw>
54.6917

> <Gold.Goldscore.Internal.HBond>
0.0000

> <Gold.Goldscore.External.HBond>
7.5775

> <Gold.Goldscore.Internal.Correction>
-18.6954

> <Gold.Goldscore.Hbonds>
donor molecule, donor type, donor heavy atom, donor atom, acceptor molecule, acceptor atom, score
      P1  H  1994  4571       L1    28  0.01
      L1  H    30    62       P1   853  0.67
      L1  H    31    63       P1   853  0.59

> <Gold.Goldscore.Internal.Vdw.Weighted>
-14.8374

> <Gold.Goldscore.Internal.Torsion.Weighted>
-8.8896

> <Gold.Goldscore.External.Vdw.Weighted>
75.2011

> <Gold.Goldscore.Internal.HBond.Weighted>
0.0000

> <Gold.Goldscore.External.HBond.Weighted>
7.5775

> <Gold.Goldscore.Internal.Correction.Weighted>
-18.6954

> <Gold.Protein.RotatedTorsions>
[ 3781 1176 1175 1172 ] final -152.42 input   60.00 | X-H torsion
[ 3847 1247 1246 1244 ] final  -83.22 input   60.00 | X-H torsion
[ 4507 1931 1930 1928 ] final  107.06 input   60.00 | X-H torsion
[ 3677 1070 1069 1066 ] final  -33.82 input   60.00 | X-H torsion
[ 3525  925  924  922 ] final   42.35 input   59.99 | X-H torsion
[ 4531 1957 1955 1953 ] final   95.40 input   60.00 | X-H torsion

> <Gold.Protein.ActiveResidues>
 PHE267  PRO268  MET310  ASP335  TRP336  MET339  TYR343  THR360  PRO361  ILE363 
 PRO371  SER374  ILE375  ASN378  PHE381  TYR383  GLN384  PHE387  LEU408  LEU417 
 MET419  LEU428  TYR466  MET469  ASN472  ASP496  VAL498  LEU499  MET503  HIS524 
 TRP525 

> <Gold.Protein.RotatedAtoms>
   -3.0685  -29.7422  -30.8491 H   0  0  0  0  0  0  0  0  0  0  0  0  # atno 3525 bound_to 925 
  -12.6261  -23.6593  -30.9247 H   0  0  0  0  0  0  0  0  0  0  0  0  # atno 3677 bound_to 1070
   -9.2591  -36.3568  -33.2754 H   0  0  0  0  0  0  0  0  0  0  0  0  # atno 3781 bound_to 1176
  -15.9539  -27.5491  -37.4063 H   0  0  0  0  0  0  0  0  0  0  0  0  # atno 3847 bound_to 1247
  -12.4315  -24.0565  -39.1854 H   0  0  0  0  0  0  0  0  0  0  0  0  # atno 4507 bound_to 1931
   -2.7344  -33.8795  -36.7362 H   0  0  0  0  0  0  0  0  0  0  0  0  # atno 4531 bound_to 1957
  -10.2861  -37.3369  -32.4800 LP  0  0  0  0  0  0  0  0  0  0  0  0  # atno 5205 bound_to 1176
  -10.5710  -36.9431  -34.0389 LP  0  0  0  0  0  0  0  0  0  0  0  0  # atno 5206 bound_to 1176
  -14.4253  -27.7314  -37.9338 LP  0  0  0  0  0  0  0  0  0  0  0  0  # atno 5215 bound_to 1247
  -15.1798  -28.9604  -37.1675 LP  0  0  0  0  0  0  0  0  0  0  0  0  # atno 5216 bound_to 1247
  -13.3909  -25.3696  -39.2411 LP  0  0  0  0  0  0  0  0  0  0  0  0  # atno 5217 bound_to 1931
  -13.3769  -24.3117  -40.4850 LP  0  0  0  0  0  0  0  0  0  0  0  0  # atno 5218 bound_to 1931
  -11.1459  -23.1429  -31.3614 LP  0  0  0  0  0  0  0  0  0  0  0  0  # atno 5224 bound_to 1070
  -12.0773  -22.2268  -30.3817 LP  0  0  0  0  0  0  0  0  0  0  0  0  # atno 5225 bound_to 1070

$$$$
EZ_14|Lisa_paper2_min|sdf|2|dock1
  -GOLD-  10182016493D 1   1.00000     0.00000

 48 51  0  0  0  0  0  0  0  0  1 V2000
  -20.7856  -24.1100  -36.1878 C   0  0  0  0  0  0  0  0  0  0  0  0
  -20.4492  -23.2831  -37.2621 C   0  0  0  0  0  0  0  0  0  0  0  0
  -19.8465  -24.9873  -35.6310 C   0  0  0  0  0  0  0  0  0  0  0  0
  -19.1658  -23.3017  -37.8182 C   0  0  0  0  0  0  0  0  0  0  0  0
  -11.1444  -26.9744  -36.1974 C   0  0  0  0  0  0  0  0  0  0  0  0
   -6.7849  -30.5633  -35.4309 C   0  0  0  0  0  0  0  0  0  0  0  0
  -12.4127  -26.4871  -36.5127 C   0  0  0  0  0  0  0  0  0  0  0  0
   -5.9256  -31.6611  -35.4771 C   0  0  0  0  0  0  0  0  0  0  0  0
  -12.3296  -25.0267  -34.5898 C   0  0  0  0  0  0  0  0  0  0  0  0
   -5.3352  -29.4963  -33.8194 C   0  0  0  0  0  0  0  0  0  0  0  0
  -11.0612  -25.5140  -34.2745 C   0  0  0  0  0  0  0  0  0  0  0  0
  -18.5524  -25.0192  -36.1773 C   0  0  0  0  0  0  0  0  0  0  0  0
  -18.2471  -24.1831  -37.2477 C   0  0  0  0  0  0  0  0  0  0  0  0
   -6.4896  -29.4808  -34.6021 C   0  0  0  0  0  0  0  0  0  0  0  0
  -10.4687  -26.4879  -35.0784 C   0  0  0  0  0  0  0  0  0  0  0  0
  -13.0054  -25.5132  -35.7089 C   0  0  0  0  0  0  0  0  0  0  0  0
   -4.7711  -31.6765  -34.6945 C   0  0  0  0  0  0  0  0  0  0  0  0
   -4.4759  -30.5941  -33.8655 C   0  0  0  0  0  0  0  0  0  0  0  0
  -16.5089  -25.4160  -36.6530 C   0  0  0  0  0  0  0  0  0  0  0  0
   -8.6857  -28.2867  -35.0152 C   0  0  0  0  0  0  0  0  0  0  0  0
  -10.3612  -24.9745  -33.0696 C   0  0  0  0  0  0  0  0  0  0  0  0
  -15.1288  -25.9344  -36.6936 C   0  0  0  0  0  0  0  0  0  0  0  0
  -17.4605  -25.7774  -35.8219 N   0  0  0  0  0  0  0  0  0  0  0  0
  -16.9338  -24.4581  -37.5310 N   0  0  0  0  0  0  0  0  0  0  0  0
   -7.3613  -28.3672  -34.5559 N   0  0  0  0  0  0  0  0  0  0  0  0
   -9.1999  -26.9898  -34.7780 N   0  0  0  0  0  0  0  0  0  0  0  0
   -9.3099  -29.2009  -35.5442 O   0  0  0  0  0  0  0  0  0  0  0  0
  -14.2487  -25.0351  -36.0185 O   0  0  0  0  0  0  0  0  0  0  0  0
   -3.7484  -33.0666  -34.7935 Cl  0  0  0  0  0  0  0  0  0  0  0  0
   -3.0623  -30.5555  -32.8711 Cl  0  0  0  0  0  0  0  0  0  0  0  0
  -21.7914  -24.0724  -35.7769 H   0  0  0  0  0  0  0  0  0  0  0  0
  -21.1990  -22.6128  -37.6752 H   0  0  0  0  0  0  0  0  0  0  0  0
  -20.1180  -25.6249  -34.7957 H   0  0  0  0  0  0  0  0  0  0  0  0
  -18.9027  -22.6598  -38.6512 H   0  0  0  0  0  0  0  0  0  0  0  0
  -10.6930  -27.7342  -36.8308 H   0  0  0  0  0  0  0  0  0  0  0  0
   -7.6811  -30.5607  -36.0459 H   0  0  0  0  0  0  0  0  0  0  0  0
  -12.9339  -26.8698  -37.3860 H   0  0  0  0  0  0  0  0  0  0  0  0
   -6.1707  -32.4951  -36.1300 H   0  0  0  0  0  0  0  0  0  0  0  0
  -12.7945  -24.2679  -33.9650 H   0  0  0  0  0  0  0  0  0  0  0  0
   -5.1109  -28.6495  -33.1738 H   0  0  0  0  0  0  0  0  0  0  0  0
   -9.5028  -24.3638  -33.3717 H   0  0  0  0  0  0  0  0  0  0  0  0
  -11.0351  -24.3564  -32.4643 H   0  0  0  0  0  0  0  0  0  0  0  0
  -10.0040  -25.7856  -32.4234 H   0  0  0  0  0  0  0  0  0  0  0  0
  -15.0399  -26.9234  -36.2095 H   0  0  0  0  0  0  0  0  0  0  0  0
  -14.7634  -26.0566  -37.7289 H   0  0  0  0  0  0  0  0  0  0  0  0
  -16.3806  -24.0267  -38.2598 H   0  0  0  0  0  0  0  0  0  0  0  0
   -6.9817  -27.5210  -34.1389 H   0  0  0  0  0  0  0  0  0  0  0  0
   -8.5476  -26.3413  -34.3265 H   0  0  0  0  0  0  0  0  0  0  0  0
  1  2  2  0  0  0  0
  1  3  1  0  0  0  0
  2  4  1  0  0  0  0
  3 12  2  0  0  0  0
  4 13  2  0  0  0  0
  5  7  1  0  0  0  0
  5 15  2  0  0  0  0
  6  8  1  0  0  0  0
  6 14  2  0  0  0  0
  7 16  2  0  0  0  0
  8 17  2  0  0  0  0
  9 11  2  0  0  0  0
  9 16  1  0  0  0  0
 10 14  1  0  0  0  0
 10 18  2  0  0  0  0
 11 15  1  0  0  0  0
 11 21  1  0  0  0  0
 12 13  1  0  0  0  0
 12 23  1  0  0  0  0
 13 24  1  0  0  0  0
 14 25  1  0  0  0  0
 15 26  1  0  0  0  0
 16 28  1  0  0  0  0
 17 18  1  0  0  0  0
 17 29  1  0  0  0  0
 18 30  1  0  0  0  0
 19 22  1  0  0  0  0
 19 23  2  0  0  0  0
 19 24  1  0  0  0  0
 20 25  1  0  0  0  0
 20 26  1  0  0  0  0
 20 27  2  0  0  0  0
 22 28  1  0  0  0  0
  1 31  1  0  0  0  0
  2 32  1  0  0  0  0
  3 33  1  0  0  0  0
  4 34  1  0  0  0  0
  5 35  1  0  0  0  0
  6 36  1  0  0  0  0
  7 37  1  0  0  0  0
  8 38  1  0  0  0  0
  9 39  1  0  0  0  0
 10 40  1  0  0  0  0
 21 41  1  0  0  0  0
 21 42  1  0  0  0  0
 21 43  1  0  0  0  0
 22 44  1  0  0  0  0
 22 45  1  0  0  0  0
 24 46  1  0  0  0  0
 25 47  1  0  0  0  0
 26 48  1  0  0  0  0
M  END
> <Name>
EZ_14

> <SourceTag>
EZ_14

> <Activity_FLAP>
0.7

> <Activity_sEH>
56.9

> <Gold.Version>
5.2

> <Gold.Id.Protein>
6HGV|6HGV_protein|mol2

> <Gold.Goldscore.Fitness>
84.5274

> <Gold.Goldscore.Internal.Vdw>
-9.2281

> <Gold.Goldscore.Internal.Torsion>
-4.3394

> <Gold.Goldscore.External.Vdw>
62.8465

> <Gold.Goldscore.Internal.HBond>
0.0000

> <Gold.Goldscore.External.HBond>
0.0000

> <Gold.Goldscore.Internal.Correction>
-11.6809

> <Gold.Goldscore.Internal.Vdw.Weighted>
-9.2281

> <Gold.Goldscore.Internal.Torsion.Weighted>
-4.3394

> <Gold.Goldscore.External.Vdw.Weighted>
86.4139

> <Gold.Goldscore.Internal.HBond.Weighted>
0.0000

> <Gold.Goldscore.External.HBond.Weighted>
0.0000

> <Gold.Goldscore.Internal.Correction.Weighted>
-11.6809

> <Gold.Protein.RotatedTorsions>
[ 3781 1176 1175 1172 ] final  166.21 input   60.00 | X-H torsion
[ 3847 1247 1246 1244 ] final   61.86 input   60.00 | X-H torsion
[ 4507 1931 1930 1928 ] final   57.20 input   60.00 | X-H torsion
[ 3677 1070 1069 1066 ] final   -2.94 input   60.00 | X-H torsion
[ 3525  925  924  922 ] final  -36.33 input   59.99 | X-H torsion
[ 4531 1957 1955 1953 ] final  -59.74 input   60.00 | X-H torsion

> <Gold.Protein.ActiveResidues>
 PHE267  PRO268  MET310  ASP335  TRP336  MET339  TYR343  THR360  PRO361  ILE363 
 PRO371  SER374  ILE375  ASN378  PHE381  TYR383  GLN384  PHE387  LEU408  LEU417 
 MET419  LEU428  TYR466  MET469  ASN472  ASP496  VAL498  LEU499  MET503  HIS524 
 TRP525 

> <Gold.Protein.RotatedAtoms>
   -3.7724  -29.5204  -29.9195 H   0  0  0  0  0  0  0  0  0  0  0  0  # atno 3525 bound_to 925 
  -12.8044  -23.2978  -30.6312 H   0  0  0  0  0  0  0  0  0  0  0  0  # atno 3677 bound_to 1070
   -9.3450  -36.6363  -32.6821 H   0  0  0  0  0  0  0  0  0  0  0  0  # atno 3781 bound_to 1176
  -14.8088  -28.9179  -37.3321 H   0  0  0  0  0  0  0  0  0  0  0  0  # atno 3847 bound_to 1247
  -12.6623  -24.7058  -38.8006 H   0  0  0  0  0  0  0  0  0  0  0  0  # atno 4507 bound_to 1931
   -1.9835  -32.2159  -36.8502 H   0  0  0  0  0  0  0  0  0  0  0  0  # atno 4531 bound_to 1957
  -10.7263  -37.4480  -32.9674 LP  0  0  0  0  0  0  0  0  0  0  0  0  # atno 5205 bound_to 1176
  -10.0443  -36.5505  -34.1489 LP  0  0  0  0  0  0  0  0  0  0  0  0  # atno 5206 bound_to 1176
  -16.0705  -27.8957  -37.2252 LP  0  0  0  0  0  0  0  0  0  0  0  0  # atno 5215 bound_to 1247
  -14.6878  -27.4177  -37.9508 LP  0  0  0  0  0  0  0  0  0  0  0  0  # atno 5216 bound_to 1247
  -13.6937  -25.2030  -39.9568 LP  0  0  0  0  0  0  0  0  0  0  0  0  # atno 5217 bound_to 1931
  -12.8416  -23.8244  -40.1567 LP  0  0  0  0  0  0  0  0  0  0  0  0  # atno 5218 bound_to 1931
  -11.4245  -23.5497  -31.4561 LP  0  0  0  0  0  0  0  0  0  0  0  0  # atno 5224 bound_to 1070
  -11.6192  -22.1839  -30.5825 LP  0  0  0  0  0  0  0  0  0  0  0  0  # atno 5225 bound_to 1070

$$$$
EZ_14|Lisa_paper2_min|sdf|2|dock6
  -GOLD-  10182016503D 1   1.00000     0.00000

 48 51  0  0  0  0  0  0  0  0  1 V2000
   -4.2877  -32.8277  -35.4876 C   0  0  0  0  0  0  0  0  0  0  0  0
   -3.4348  -32.1217  -34.6360 C   0  0  0  0  0  0  0  0  0  0  0  0
   -5.5387  -32.3105  -35.8468 C   0  0  0  0  0  0  0  0  0  0  0  0
   -3.7990  -30.8763  -34.1133 C   0  0  0  0  0  0  0  0  0  0  0  0
  -12.1148  -27.2234  -36.6284 C   0  0  0  0  0  0  0  0  0  0  0  0
  -18.1818  -24.6179  -36.1967 C   0  0  0  0  0  0  0  0  0  0  0  0
  -10.8354  -27.7692  -36.7311 C   0  0  0  0  0  0  0  0  0  0  0  0
  -19.2982  -24.1520  -36.8910 C   0  0  0  0  0  0  0  0  0  0  0  0
  -10.1519  -26.5359  -34.7693 C   0  0  0  0  0  0  0  0  0  0  0  0
  -16.7477  -23.8318  -37.9749 C   0  0  0  0  0  0  0  0  0  0  0  0
  -11.4314  -25.9899  -34.6666 C   0  0  0  0  0  0  0  0  0  0  0  0
   -5.9209  -31.0607  -35.3307 C   0  0  0  0  0  0  0  0  0  0  0  0
   -5.0493  -30.3809  -34.4845 C   0  0  0  0  0  0  0  0  0  0  0  0
  -16.9065  -24.4577  -36.7386 C   0  0  0  0  0  0  0  0  0  0  0  0
  -12.4128  -26.3338  -35.5962 C   0  0  0  0  0  0  0  0  0  0  0  0
   -9.8538  -27.4255  -35.8015 C   0  0  0  0  0  0  0  0  0  0  0  0
  -19.1394  -23.5260  -38.1274 C   0  0  0  0  0  0  0  0  0  0  0  0
  -17.8640  -23.3659  -38.6694 C   0  0  0  0  0  0  0  0  0  0  0  0
   -6.9193  -29.2454  -34.8138 C   0  0  0  0  0  0  0  0  0  0  0  0
  -14.5742  -25.4318  -36.5625 C   0  0  0  0  0  0  0  0  0  0  0  0
  -11.7218  -25.0396  -33.5507 C   0  0  0  0  0  0  0  0  0  0  0  0
   -7.8793  -28.1337  -34.6810 C   0  0  0  0  0  0  0  0  0  0  0  0
   -7.0770  -30.3400  -35.5238 N   0  0  0  0  0  0  0  0  0  0  0  0
   -5.7137  -29.2234  -34.1695 N   0  0  0  0  0  0  0  0  0  0  0  0
  -15.7742  -24.9299  -36.0336 N   0  0  0  0  0  0  0  0  0  0  0  0
  -13.6996  -25.7961  -35.5114 N   0  0  0  0  0  0  0  0  0  0  0  0
  -14.3162  -25.5408  -37.7570 O   0  0  0  0  0  0  0  0  0  0  0  0
   -8.5995  -27.9611  -35.9019 O   0  0  0  0  0  0  0  0  0  0  0  0
  -20.5616  -22.9734  -38.9400 Cl  0  0  0  0  0  0  0  0  0  0  0  0
  -17.6032  -22.6007  -40.1975 Cl  0  0  0  0  0  0  0  0  0  0  0  0
   -3.9762  -33.7932  -35.8782 H   0  0  0  0  0  0  0  0  0  0  0  0
   -2.4699  -32.5482  -34.3730 H   0  0  0  0  0  0  0  0  0  0  0  0
   -6.1934  -32.8668  -36.5100 H   0  0  0  0  0  0  0  0  0  0  0  0
   -3.1379  -30.3266  -33.4531 H   0  0  0  0  0  0  0  0  0  0  0  0
  -12.8714  -27.4980  -37.3595 H   0  0  0  0  0  0  0  0  0  0  0  0
  -18.3165  -25.1029  -35.2333 H   0  0  0  0  0  0  0  0  0  0  0  0
  -10.6095  -28.4620  -37.5372 H   0  0  0  0  0  0  0  0  0  0  0  0
  -20.2844  -24.2840  -36.4528 H   0  0  0  0  0  0  0  0  0  0  0  0
   -9.3844  -26.2695  -34.0465 H   0  0  0  0  0  0  0  0  0  0  0  0
  -15.7503  -23.7109  -38.3932 H   0  0  0  0  0  0  0  0  0  0  0  0
  -10.7916  -24.5932  -33.1812 H   0  0  0  0  0  0  0  0  0  0  0  0
  -12.3898  -24.2347  -33.8804 H   0  0  0  0  0  0  0  0  0  0  0  0
  -12.2213  -25.5487  -32.7174 H   0  0  0  0  0  0  0  0  0  0  0  0
   -8.6145  -28.3109  -33.8757 H   0  0  0  0  0  0  0  0  0  0  0  0
   -7.3763  -27.1793  -34.4438 H   0  0  0  0  0  0  0  0  0  0  0  0
   -5.3701  -28.4862  -33.5682 H   0  0  0  0  0  0  0  0  0  0  0  0
  -15.8373  -24.9025  -35.0191 H   0  0  0  0  0  0  0  0  0  0  0  0
  -14.0685  -25.6418  -34.5679 H   0  0  0  0  0  0  0  0  0  0  0  0
  1  2  2  0  0  0  0
  1  3  1  0  0  0  0
  2  4  1  0  0  0  0
  3 12  2  0  0  0  0
  4 13  2  0  0  0  0
  5  7  1  0  0  0  0
  5 15  2  0  0  0  0
  6  8  1  0  0  0  0
  6 14  2  0  0  0  0
  7 16  2  0  0  0  0
  8 17  2  0  0  0  0
  9 11  2  0  0  0  0
  9 16  1  0  0  0  0
 10 14  1  0  0  0  0
 10 18  2  0  0  0  0
 11 15  1  0  0  0  0
 11 21  1  0  0  0  0
 12 13  1  0  0  0  0
 12 23  1  0  0  0  0
 13 24  1  0  0  0  0
 14 25  1  0  0  0  0
 15 26  1  0  0  0  0
 16 28  1  0  0  0  0
 17 18  1  0  0  0  0
 17 29  1  0  0  0  0
 18 30  1  0  0  0  0
 19 22  1  0  0  0  0
 19 23  2  0  0  0  0
 19 24  1  0  0  0  0
 20 25  1  0  0  0  0
 20 26  1  0  0  0  0
 20 27  2  0  0  0  0
 22 28  1  0  0  0  0
  1 31  1  0  0  0  0
  2 32  1  0  0  0  0
  3 33  1  0  0  0  0
  4 34  1  0  0  0  0
  5 35  1  0  0  0  0
  6 36  1  0  0  0  0
  7 37  1  0  0  0  0
  8 38  1  0  0  0  0
  9 39  1  0  0  0  0
 10 40  1  0  0  0  0
 21 41  1  0  0  0  0
 21 42  1  0  0  0  0
 21 43  1  0  0  0  0
 22 44  1  0  0  0  0
 22 45  1  0  0  0  0
 24 46  1  0  0  0  0
 25 47  1  0  0  0  0
 26 48  1  0  0  0  0
M  END
> <Name>
EZ_14

> <SourceTag>
EZ_14

> <Activity_FLAP>
0.7

> <Activity_sEH>
56.9

> <Gold.Version>
5.2

> <Gold.Id.Protein>
6HGV|6HGV_protein|mol2

> <Gold.Goldscore.Fitness>
83.4349

> <Gold.Goldscore.Internal.Vdw>
-5.3588

> <Gold.Goldscore.Internal.Torsion>
-7.1411

> <Gold.Goldscore.External.Vdw>
61.8005

> <Gold.Goldscore.Internal.HBond>
0.0000

> <Gold.Goldscore.External.HBond>
0.6385

> <Gold.Goldscore.Internal.Correction>
-10.3206

> <Gold.Goldscore.Hbonds>
donor molecule, donor type, donor heavy atom, donor atom, acceptor molecule, acceptor atom, score
      P1  H  1931  4507       L1    27  0.32

> <Gold.Goldscore.Internal.Vdw.Weighted>
-5.3588

> <Gold.Goldscore.Internal.Torsion.Weighted>
-7.1411

> <Gold.Goldscore.External.Vdw.Weighted>
84.9757

> <Gold.Goldscore.Internal.HBond.Weighted>
0.0000

> <Gold.Goldscore.External.HBond.Weighted>
0.6385

> <Gold.Goldscore.Internal.Correction.Weighted>
-10.3206

> <Gold.Protein.RotatedTorsions>
[ 3781 1176 1175 1172 ] final   74.08 input   60.00 | X-H torsion
[ 3847 1247 1246 1244 ] final   44.58 input   60.00 | X-H torsion
[ 4507 1931 1930 1928 ] final   15.68 input   60.00 | X-H torsion
[ 3677 1070 1069 1066 ] final -179.27 input   60.00 | X-H torsion
[ 3525  925  924  922 ] final   17.69 input   59.99 | X-H torsion
[ 4531 1957 1955 1953 ] final  -77.49 input   60.00 | X-H torsion

> <Gold.Protein.ActiveResidues>
 PHE267  PRO268  MET310  ASP335  TRP336  MET339  TYR343  THR360  PRO361  ILE363 
 PRO371  SER374  ILE375  ASN378  PHE381  TYR383  GLN384  PHE387  LEU408  LEU417 
 MET419  LEU428  TYR466  MET469  ASN472  ASP496  VAL498  LEU499  MET503  HIS524 
 TRP525 

> <Gold.Protein.RotatedAtoms>
   -3.4069  -29.6100  -30.6819 H   0  0  0  0  0  0  0  0  0  0  0  0  # atno 3525 bound_to 925 
  -11.0916  -22.7765  -31.1764 H   0  0  0  0  0  0  0  0  0  0  0  0  # atno 3677 bound_to 1070
  -10.4525  -37.4022  -32.6100 H   0  0  0  0  0  0  0  0  0  0  0  0  # atno 3781 bound_to 1176
  -15.0614  -28.9614  -37.2163 H   0  0  0  0  0  0  0  0  0  0  0  0  # atno 3847 bound_to 1247
  -13.0869  -25.1977  -38.9347 H   0  0  0  0  0  0  0  0  0  0  0  0  # atno 4507 bound_to 1931
   -1.7189  -32.3192  -36.9022 H   0  0  0  0  0  0  0  0  0  0  0  0  # atno 4531 bound_to 1957
  -10.4172  -36.8083  -34.1247 LP  0  0  0  0  0  0  0  0  0  0  0  0  # atno 5205 bound_to 1176
   -9.2381  -36.4188  -33.0642 LP  0  0  0  0  0  0  0  0  0  0  0  0  # atno 5206 bound_to 1176
  -16.0105  -27.6458  -37.3443 LP  0  0  0  0  0  0  0  0  0  0  0  0  # atno 5215 bound_to 1247
  -14.4934  -27.6236  -37.9482 LP  0  0  0  0  0  0  0  0  0  0  0  0  # atno 5216 bound_to 1247
  -13.6050  -24.7088  -40.3978 LP  0  0  0  0  0  0  0  0  0  0  0  0  # atno 5217 bound_to 1931
  -12.5027  -23.8232  -39.5808 LP  0  0  0  0  0  0  0  0  0  0  0  0  # atno 5218 bound_to 1931
  -12.4338  -22.4318  -30.3232 LP  0  0  0  0  0  0  0  0  0  0  0  0  # atno 5224 bound_to 1070
  -12.3346  -23.8268  -31.1664 LP  0  0  0  0  0  0  0  0  0  0  0  0  # atno 5225 bound_to 1070

$$$$
EZ_14|Lisa_paper2_min|sdf|2|dock3
  -GOLD-  10182016503D 1   1.00000     0.00000

 48 51  0  0  0  0  0  0  0  0  1 V2000
  -20.6976  -23.2957  -37.3894 C   0  0  0  0  0  0  0  0  0  0  0  0
  -20.7803  -24.0347  -36.2070 C   0  0  0  0  0  0  0  0  0  0  0  0
  -19.5080  -23.2450  -38.1268 C   0  0  0  0  0  0  0  0  0  0  0  0
  -19.6809  -24.7486  -35.7189 C   0  0  0  0  0  0  0  0  0  0  0  0
  -11.2033  -26.5827  -36.7327 C   0  0  0  0  0  0  0  0  0  0  0  0
   -5.4890  -29.5094  -34.9158 C   0  0  0  0  0  0  0  0  0  0  0  0
  -12.4176  -25.9881  -37.0751 C   0  0  0  0  0  0  0  0  0  0  0  0
   -4.6809  -30.6397  -35.0378 C   0  0  0  0  0  0  0  0  0  0  0  0
  -12.5316  -24.9629  -34.8904 C   0  0  0  0  0  0  0  0  0  0  0  0
   -7.4402  -30.8530  -35.3895 C   0  0  0  0  0  0  0  0  0  0  0  0
  -11.3173  -25.5576  -34.5479 C   0  0  0  0  0  0  0  0  0  0  0  0
  -18.3934  -23.9562  -37.6510 C   0  0  0  0  0  0  0  0  0  0  0  0
  -18.5067  -24.6837  -36.4695 C   0  0  0  0  0  0  0  0  0  0  0  0
   -6.8687  -29.6160  -35.0915 C   0  0  0  0  0  0  0  0  0  0  0  0
  -10.6531  -26.3675  -35.4691 C   0  0  0  0  0  0  0  0  0  0  0  0
  -13.0819  -25.1781  -36.1540 C   0  0  0  0  0  0  0  0  0  0  0  0
   -5.2525  -31.8768  -35.3357 C   0  0  0  0  0  0  0  0  0  0  0  0
   -6.6322  -31.9834  -35.5115 C   0  0  0  0  0  0  0  0  0  0  0  0
  -16.4791  -24.8493  -37.3392 C   0  0  0  0  0  0  0  0  0  0  0  0
   -8.9669  -28.2581  -35.5069 C   0  0  0  0  0  0  0  0  0  0  0  0
  -10.7520  -25.3094  -33.1872 C   0  0  0  0  0  0  0  0  0  0  0  0
  -15.0747  -25.2865  -37.4473 C   0  0  0  0  0  0  0  0  0  0  0  0
  -17.1271  -24.0710  -38.1768 N   0  0  0  0  0  0  0  0  0  0  0  0
  -17.2675  -25.2444  -36.2946 N   0  0  0  0  0  0  0  0  0  0  0  0
   -7.6881  -28.4692  -34.9671 N   0  0  0  0  0  0  0  0  0  0  0  0
   -9.4369  -26.9735  -35.1442 N   0  0  0  0  0  0  0  0  0  0  0  0
   -9.5897  -29.0633  -36.1917 O   0  0  0  0  0  0  0  0  0  0  0  0
  -14.2722  -24.5946  -36.4901 O   0  0  0  0  0  0  0  0  0  0  0  0
   -4.1980  -33.2392  -35.4769 Cl  0  0  0  0  0  0  0  0  0  0  0  0
   -7.3988  -33.4876  -35.8840 Cl  0  0  0  0  0  0  0  0  0  0  0  0
  -21.5696  -22.7516  -37.7435 H   0  0  0  0  0  0  0  0  0  0  0  0
  -21.7164  -24.0548  -35.6543 H   0  0  0  0  0  0  0  0  0  0  0  0
  -19.4547  -22.6686  -39.0448 H   0  0  0  0  0  0  0  0  0  0  0  0
  -19.7436  -25.3235  -34.8020 H   0  0  0  0  0  0  0  0  0  0  0  0
  -10.6952  -27.2129  -37.4587 H   0  0  0  0  0  0  0  0  0  0  0  0
   -5.0336  -28.5505  -34.6820 H   0  0  0  0  0  0  0  0  0  0  0  0
  -12.8409  -26.1592  -38.0612 H   0  0  0  0  0  0  0  0  0  0  0  0
   -3.6078  -30.5384  -34.8960 H   0  0  0  0  0  0  0  0  0  0  0  0
  -13.0521  -24.3314  -34.1744 H   0  0  0  0  0  0  0  0  0  0  0  0
   -8.5170  -30.9296  -35.5267 H   0  0  0  0  0  0  0  0  0  0  0  0
  -11.5056  -24.8423  -32.5430 H   0  0  0  0  0  0  0  0  0  0  0  0
  -10.4224  -26.2449  -32.7191 H   0  0  0  0  0  0  0  0  0  0  0  0
   -9.8764  -24.6507  -33.2366 H   0  0  0  0  0  0  0  0  0  0  0  0
  -14.9598  -26.3703  -37.2662 H   0  0  0  0  0  0  0  0  0  0  0  0
  -14.6562  -25.0887  -38.4502 H   0  0  0  0  0  0  0  0  0  0  0  0
  -16.9897  -25.8438  -35.5286 H   0  0  0  0  0  0  0  0  0  0  0  0
   -7.3033  -27.7037  -34.4194 H   0  0  0  0  0  0  0  0  0  0  0  0
   -8.7925  -26.4234  -34.5679 H   0  0  0  0  0  0  0  0  0  0  0  0
  1  2  2  0  0  0  0
  1  3  1  0  0  0  0
  2  4  1  0  0  0  0
  3 12  2  0  0  0  0
  4 13  2  0  0  0  0
  5  7  1  0  0  0  0
  5 15  2  0  0  0  0
  6  8  1  0  0  0  0
  6 14  2  0  0  0  0
  7 16  2  0  0  0  0
  8 17  2  0  0  0  0
  9 11  2  0  0  0  0
  9 16  1  0  0  0  0
 10 14  1  0  0  0  0
 10 18  2  0  0  0  0
 11 15  1  0  0  0  0
 11 21  1  0  0  0  0
 12 13  1  0  0  0  0
 12 23  1  0  0  0  0
 13 24  1  0  0  0  0
 14 25  1  0  0  0  0
 15 26  1  0  0  0  0
 16 28  1  0  0  0  0
 17 18  1  0  0  0  0
 17 29  1  0  0  0  0
 18 30  1  0  0  0  0
 19 22  1  0  0  0  0
 19 23  2  0  0  0  0
 19 24  1  0  0  0  0
 20 25  1  0  0  0  0
 20 26  1  0  0  0  0
 20 27  2  0  0  0  0
 22 28  1  0  0  0  0
  1 31  1  0  0  0  0
  2 32  1  0  0  0  0
  3 33  1  0  0  0  0
  4 34  1  0  0  0  0
  5 35  1  0  0  0  0
  6 36  1  0  0  0  0
  7 37  1  0  0  0  0
  8 38  1  0  0  0  0
  9 39  1  0  0  0  0
 10 40  1  0  0  0  0
 21 41  1  0  0  0  0
 21 42  1  0  0  0  0
 21 43  1  0  0  0  0
 22 44  1  0  0  0  0
 22 45  1  0  0  0  0
 24 46  1  0  0  0  0
 25 47  1  0  0  0  0
 26 48  1  0  0  0  0
M  END
> <Name>
EZ_14

> <SourceTag>
EZ_14

> <Activity_FLAP>
0.7

> <Activity_sEH>
56.9

> <Gold.Version>
5.2

> <Gold.Id.Protein>
6HGV|6HGV_protein|mol2

> <Gold.Goldscore.Fitness>
81.2843

> <Gold.Goldscore.Internal.Vdw>
-6.2158

> <Gold.Goldscore.Internal.Torsion>
-5.8594

> <Gold.Goldscore.External.Vdw>
59.9294

> <Gold.Goldscore.Internal.HBond>
0.0000

> <Gold.Goldscore.External.HBond>
0.0000

> <Gold.Goldscore.Internal.Correction>
-10.9566

> <Gold.Goldscore.Internal.Vdw.Weighted>
-6.2158

> <Gold.Goldscore.Internal.Torsion.Weighted>
-5.8594

> <Gold.Goldscore.External.Vdw.Weighted>
82.4029

> <Gold.Goldscore.Internal.HBond.Weighted>
0.0000

> <Gold.Goldscore.External.HBond.Weighted>
0.0000

> <Gold.Goldscore.Internal.Correction.Weighted>
-10.9566

> <Gold.Protein.RotatedTorsions>
[ 3781 1176 1175 1172 ] final -132.74 input   60.00 | X-H torsion
[ 3847 1247 1246 1244 ] final   41.65 input   60.00 | X-H torsion
[ 4507 1931 1930 1928 ] final  149.54 input   60.00 | X-H torsion
[ 3677 1070 1069 1066 ] final  177.70 input   60.00 | X-H torsion
[ 3525  925  924  922 ] final   35.39 input   59.99 | X-H torsion
[ 4531 1957 1955 1953 ] final  -87.29 input   60.00 | X-H torsion

> <Gold.Protein.ActiveResidues>
 PHE267  PRO268  MET310  ASP335  TRP336  MET339  TYR343  THR360  PRO361  ILE363 
 PRO371  SER374  ILE375  ASN378  PHE381  TYR383  GLN384  PHE387  LEU408  LEU417 
 MET419  LEU428  TYR466  MET469  ASN472  ASP496  VAL498  LEU499  MET503  HIS524 
 TRP525 

> <Gold.Protein.RotatedAtoms>
   -3.1698  -29.7009  -30.8179 H   0  0  0  0  0  0  0  0  0  0  0  0  # atno 3525 bound_to 925 
  -11.0958  -22.7346  -31.1505 H   0  0  0  0  0  0  0  0  0  0  0  0  # atno 3677 bound_to 1070
   -9.3595  -36.3113  -33.5758 H   0  0  0  0  0  0  0  0  0  0  0  0  # atno 3781 bound_to 1176
  -15.1061  -28.9609  -37.1989 H   0  0  0  0  0  0  0  0  0  0  0  0  # atno 3847 bound_to 1247
  -12.5920  -23.7840  -39.7854 H   0  0  0  0  0  0  0  0  0  0  0  0  # atno 4507 bound_to 1931
   -1.5900  -32.4104  -36.9283 H   0  0  0  0  0  0  0  0  0  0  0  0  # atno 4531 bound_to 1957
  -10.0157  -37.1949  -32.3772 LP  0  0  0  0  0  0  0  0  0  0  0  0  # atno 5205 bound_to 1176
  -10.7404  -37.1309  -33.8392 LP  0  0  0  0  0  0  0  0  0  0  0  0  # atno 5206 bound_to 1176
  -15.9927  -27.6067  -37.3663 LP  0  0  0  0  0  0  0  0  0  0  0  0  # atno 5215 bound_to 1247
  -14.4663  -27.6633  -37.9438 LP  0  0  0  0  0  0  0  0  0  0  0  0  # atno 5216 bound_to 1247
  -12.9358  -25.0603  -38.8363 LP  0  0  0  0  0  0  0  0  0  0  0  0  # atno 5217 bound_to 1931
  -13.6703  -24.8954  -40.2854 LP  0  0  0  0  0  0  0  0  0  0  0  0  # atno 5218 bound_to 1931
  -12.4712  -22.4648  -30.3236 LP  0  0  0  0  0  0  0  0  0  0  0  0  # atno 5224 bound_to 1070
  -12.2930  -23.8361  -31.1922 LP  0  0  0  0  0  0  0  0  0  0  0  0  # atno 5225 bound_to 1070

$$$$
EZ_14|Lisa_paper2_min|sdf|2|dock8
  -GOLD-  10182016513D 1   1.00000     0.00000

 48 51  0  0  0  0  0  0  0  0  1 V2000
  -20.3598  -24.0266  -36.6229 C   0  0  0  0  0  0  0  0  0  0  0  0
  -20.0372  -23.1008  -37.6178 C   0  0  0  0  0  0  0  0  0  0  0  0
  -19.4009  -24.9215  -36.1319 C   0  0  0  0  0  0  0  0  0  0  0  0
  -18.7483  -23.0346  -38.1573 C   0  0  0  0  0  0  0  0  0  0  0  0
  -10.7196  -26.7741  -36.5037 C   0  0  0  0  0  0  0  0  0  0  0  0
   -6.5711  -30.5954  -35.4443 C   0  0  0  0  0  0  0  0  0  0  0  0
  -11.9545  -26.2435  -36.8764 C   0  0  0  0  0  0  0  0  0  0  0  0
   -5.7622  -31.7315  -35.4185 C   0  0  0  0  0  0  0  0  0  0  0  0
  -12.0055  -24.9359  -34.8455 C   0  0  0  0  0  0  0  0  0  0  0  0
   -5.2275  -29.5992  -33.7010 C   0  0  0  0  0  0  0  0  0  0  0  0
  -10.7705  -25.4665  -34.4728 C   0  0  0  0  0  0  0  0  0  0  0  0
  -18.1009  -24.8692  -36.6626 C   0  0  0  0  0  0  0  0  0  0  0  0
  -17.8097  -23.9354  -37.6532 C   0  0  0  0  0  0  0  0  0  0  0  0
   -6.3036  -29.5291  -34.5856 C   0  0  0  0  0  0  0  0  0  0  0  0
  -10.1276  -26.3856  -35.3020 C   0  0  0  0  0  0  0  0  0  0  0  0
  -12.5975  -25.3243  -36.0473 C   0  0  0  0  0  0  0  0  0  0  0  0
   -4.6860  -31.8014  -34.5340 C   0  0  0  0  0  0  0  0  0  0  0  0
   -4.4186  -30.7352  -33.6751 C   0  0  0  0  0  0  0  0  0  0  0  0
  -16.0419  -25.1649  -37.1450 C   0  0  0  0  0  0  0  0  0  0  0  0
   -8.4313  -28.2579  -35.1108 C   0  0  0  0  0  0  0  0  0  0  0  0
  -10.1604  -25.0322  -33.1798 C   0  0  0  0  0  0  0  0  0  0  0  0
  -14.6467  -25.6381  -37.2126 C   0  0  0  0  0  0  0  0  0  0  0  0
  -16.9907  -25.6237  -36.3600 N   0  0  0  0  0  0  0  0  0  0  0  0
  -16.4861  -24.1473  -37.9426 N   0  0  0  0  0  0  0  0  0  0  0  0
   -7.1240  -28.3766  -34.6125 N   0  0  0  0  0  0  0  0  0  0  0  0
   -8.8912  -26.9298  -34.9452 N   0  0  0  0  0  0  0  0  0  0  0  0
   -9.0833  -29.1662  -35.6157 O   0  0  0  0  0  0  0  0  0  0  0  0
  -13.8081  -24.8037  -36.4130 O   0  0  0  0  0  0  0  0  0  0  0  0
   -3.7231  -33.2370  -34.5476 Cl  0  0  0  0  0  0  0  0  0  0  0  0
   -3.1014  -30.7635  -32.5557 Cl  0  0  0  0  0  0  0  0  0  0  0  0
  -21.3703  -24.0534  -36.2229 H   0  0  0  0  0  0  0  0  0  0  0  0
  -20.8023  -22.4191  -37.9812 H   0  0  0  0  0  0  0  0  0  0  0  0
  -19.6617  -25.6363  -35.3579 H   0  0  0  0  0  0  0  0  0  0  0  0
  -18.4960  -22.3161  -38.9287 H   0  0  0  0  0  0  0  0  0  0  0  0
  -10.2284  -27.4906  -37.1577 H   0  0  0  0  0  0  0  0  0  0  0  0
   -7.4063  -30.5505  -36.1385 H   0  0  0  0  0  0  0  0  0  0  0  0
  -12.4104  -26.5498  -37.8140 H   0  0  0  0  0  0  0  0  0  0  0  0
   -5.9845  -32.5523  -36.0960 H   0  0  0  0  0  0  0  0  0  0  0  0
  -12.5095  -24.2195  -34.2011 H   0  0  0  0  0  0  0  0  0  0  0  0
   -5.0246  -28.7647  -33.0326 H   0  0  0  0  0  0  0  0  0  0  0  0
   -9.8463  -25.9053  -32.5966 H   0  0  0  0  0  0  0  0  0  0  0  0
   -9.2864  -24.3919  -33.3501 H   0  0  0  0  0  0  0  0  0  0  0  0
  -10.8722  -24.4496  -32.5824 H   0  0  0  0  0  0  0  0  0  0  0  0
  -14.5396  -26.6755  -36.8481 H   0  0  0  0  0  0  0  0  0  0  0  0
  -14.2556  -25.6254  -38.2456 H   0  0  0  0  0  0  0  0  0  0  0  0
  -15.9386  -23.6390  -38.6246 H   0  0  0  0  0  0  0  0  0  0  0  0
   -6.7166  -27.5303  -34.2231 H   0  0  0  0  0  0  0  0  0  0  0  0
   -8.2213  -26.2913  -34.5053 H   0  0  0  0  0  0  0  0  0  0  0  0
  1  2  2  0  0  0  0
  1  3  1  0  0  0  0
  2  4  1  0  0  0  0
  3 12  2  0  0  0  0
  4 13  2  0  0  0  0
  5  7  1  0  0  0  0
  5 15  2  0  0  0  0
  6  8  1  0  0  0  0
  6 14  2  0  0  0  0
  7 16  2  0  0  0  0
  8 17  2  0  0  0  0
  9 11  2  0  0  0  0
  9 16  1  0  0  0  0
 10 14  1  0  0  0  0
 10 18  2  0  0  0  0
 11 15  1  0  0  0  0
 11 21  1  0  0  0  0
 12 13  1  0  0  0  0
 12 23  1  0  0  0  0
 13 24  1  0  0  0  0
 14 25  1  0  0  0  0
 15 26  1  0  0  0  0
 16 28  1  0  0  0  0
 17 18  1  0  0  0  0
 17 29  1  0  0  0  0
 18 30  1  0  0  0  0
 19 22  1  0  0  0  0
 19 23  2  0  0  0  0
 19 24  1  0  0  0  0
 20 25  1  0  0  0  0
 20 26  1  0  0  0  0
 20 27  2  0  0  0  0
 22 28  1  0  0  0  0
  1 31  1  0  0  0  0
  2 32  1  0  0  0  0
  3 33  1  0  0  0  0
  4 34  1  0  0  0  0
  5 35  1  0  0  0  0
  6 36  1  0  0  0  0
  7 37  1  0  0  0  0
  8 38  1  0  0  0  0
  9 39  1  0  0  0  0
 10 40  1  0  0  0  0
 21 41  1  0  0  0  0
 21 42  1  0  0  0  0
 21 43  1  0  0  0  0
 22 44  1  0  0  0  0
 22 45  1  0  0  0  0
 24 46  1  0  0  0  0
 25 47  1  0  0  0  0
 26 48  1  0  0  0  0
M  END
> <Name>
EZ_14

> <SourceTag>
EZ_14

> <Activity_FLAP>
0.7

> <Activity_sEH>
56.9

> <Gold.Version>
5.2

> <Gold.Id.Protein>
6HGV|6HGV_protein|mol2

> <Gold.Goldscore.Fitness>
80.7116

> <Gold.Goldscore.Internal.Vdw>
-6.1657

> <Gold.Goldscore.Internal.Torsion>
-5.8268

> <Gold.Goldscore.External.Vdw>
59.9153

> <Gold.Goldscore.Internal.HBond>
0.0000

> <Gold.Goldscore.External.HBond>
0.0000

> <Gold.Goldscore.Internal.Correction>
-10.3206

> <Gold.Goldscore.Internal.Vdw.Weighted>
-6.1657

> <Gold.Goldscore.Internal.Torsion.Weighted>
-5.8268

> <Gold.Goldscore.External.Vdw.Weighted>
82.3835

> <Gold.Goldscore.Internal.HBond.Weighted>
0.0000

> <Gold.Goldscore.External.HBond.Weighted>
0.0000

> <Gold.Goldscore.Internal.Correction.Weighted>
-10.3206

> <Gold.Protein.RotatedTorsions>
[ 3781 1176 1175 1172 ] final   49.34 input   60.00 | X-H torsion
[ 3847 1247 1246 1244 ] final  -14.31 input   60.00 | X-H torsion
[ 4507 1931 1930 1928 ] final  118.33 input   60.00 | X-H torsion
[ 3677 1070 1069 1066 ] final  100.29 input   60.00 | X-H torsion
[ 3525  925  924  922 ] final  -64.00 input   59.99 | X-H torsion
[ 4531 1957 1955 1953 ] final  -33.51 input   60.00 | X-H torsion

> <Gold.Protein.ActiveResidues>
 PHE267  PRO268  MET310  ASP335  TRP336  MET339  TYR343  THR360  PRO361  ILE363 
 PRO371  SER374  ILE375  ASN378  PHE381  TYR383  GLN384  PHE387  LEU408  LEU417 
 MET419  LEU428  TYR466  MET469  ASN472  ASP496  VAL498  LEU499  MET503  HIS524 
 TRP525 

> <Gold.Protein.RotatedAtoms>
   -3.6807  -29.5998  -29.4884 H   0  0  0  0  0  0  0  0  0  0  0  0  # atno 3525 bound_to 925 
  -11.8641  -22.1841  -30.4593 H   0  0  0  0  0  0  0  0  0  0  0  0  # atno 3677 bound_to 1070
  -10.6971  -37.4476  -32.9246 H   0  0  0  0  0  0  0  0  0  0  0  0  # atno 3781 bound_to 1176
  -15.8676  -28.5461  -37.0587 H   0  0  0  0  0  0  0  0  0  0  0  0  # atno 3847 bound_to 1247
  -12.4421  -23.9480  -39.3334 H   0  0  0  0  0  0  0  0  0  0  0  0  # atno 4507 bound_to 1931
   -2.4009  -32.2235  -36.7709 H   0  0  0  0  0  0  0  0  0  0  0  0  # atno 4531 bound_to 1957
  -10.0880  -36.5766  -34.1568 LP  0  0  0  0  0  0  0  0  0  0  0  0  # atno 5205 bound_to 1176
   -9.3210  -36.6048  -32.7154 LP  0  0  0  0  0  0  0  0  0  0  0  0  # atno 5206 bound_to 1176
  -15.3330  -27.1911  -37.7842 LP  0  0  0  0  0  0  0  0  0  0  0  0  # atno 5215 bound_to 1247
  -14.3591  -28.4966  -37.6670 LP  0  0  0  0  0  0  0  0  0  0  0  0  # atno 5216 bound_to 1247
  -13.2776  -25.3250  -39.1016 LP  0  0  0  0  0  0  0  0  0  0  0  0  # atno 5217 bound_to 1931
  -13.4795  -24.4656  -40.4754 LP  0  0  0  0  0  0  0  0  0  0  0  0  # atno 5218 bound_to 1931
  -12.7423  -23.5141  -30.7879 LP  0  0  0  0  0  0  0  0  0  0  0  0  # atno 5224 bound_to 1070
  -11.2483  -23.3410  -31.4239 LP  0  0  0  0  0  0  0  0  0  0  0  0  # atno 5225 bound_to 1070

$$$$
EZ_14|Lisa_paper2_min|sdf|2|dock4
  -GOLD-  10182016503D 1   1.00000     0.00000

 48 51  0  0  0  0  0  0  0  0  1 V2000
   -3.4621  -32.9855  -33.5117 C   0  0  0  0  0  0  0  0  0  0  0  0
   -2.9340  -31.7813  -33.0404 C   0  0  0  0  0  0  0  0  0  0  0  0
   -4.6540  -33.0120  -34.2466 C   0  0  0  0  0  0  0  0  0  0  0  0
   -3.5751  -30.5624  -33.2853 C   0  0  0  0  0  0  0  0  0  0  0  0
  -10.9467  -27.0707  -36.7000 C   0  0  0  0  0  0  0  0  0  0  0  0
  -16.9557  -24.2356  -37.2414 C   0  0  0  0  0  0  0  0  0  0  0  0
   -9.7827  -27.7879  -36.4242 C   0  0  0  0  0  0  0  0  0  0  0  0
  -18.1063  -24.1592  -38.0262 C   0  0  0  0  0  0  0  0  0  0  0  0
   -9.5664  -26.6265  -34.3168 C   0  0  0  0  0  0  0  0  0  0  0  0
  -15.7024  -25.0145  -39.1544 C   0  0  0  0  0  0  0  0  0  0  0  0
  -10.7304  -25.9091  -34.5926 C   0  0  0  0  0  0  0  0  0  0  0  0
   -5.3115  -31.7967  -34.5019 C   0  0  0  0  0  0  0  0  0  0  0  0
   -4.7606  -30.6129  -34.0192 C   0  0  0  0  0  0  0  0  0  0  0  0
  -15.7537  -24.6631  -37.8055 C   0  0  0  0  0  0  0  0  0  0  0  0
  -11.4205  -26.1313  -35.7843 C   0  0  0  0  0  0  0  0  0  0  0  0
   -9.0925  -27.5659  -35.2326 C   0  0  0  0  0  0  0  0  0  0  0  0
  -18.0550  -24.5104  -39.3752 C   0  0  0  0  0  0  0  0  0  0  0  0
  -16.8530  -24.9381  -39.9393 C   0  0  0  0  0  0  0  0  0  0  0  0
   -6.6396  -30.2464  -35.1282 C   0  0  0  0  0  0  0  0  0  0  0  0
  -13.5799  -25.7180  -37.0434 C   0  0  0  0  0  0  0  0  0  0  0  0
  -11.2143  -24.9091  -33.5933 C   0  0  0  0  0  0  0  0  0  0  0  0
   -7.7460  -29.4664  -35.7134 C   0  0  0  0  0  0  0  0  0  0  0  0
   -6.4782  -31.5492  -35.1882 N   0  0  0  0  0  0  0  0  0  0  0  0
   -5.6308  -29.6378  -34.4346 N   0  0  0  0  0  0  0  0  0  0  0  0
  -14.5867  -24.7399  -37.0091 N   0  0  0  0  0  0  0  0  0  0  0  0
  -12.5871  -25.4214  -36.0795 N   0  0  0  0  0  0  0  0  0  0  0  0
  -13.5581  -26.6877  -37.7946 O   0  0  0  0  0  0  0  0  0  0  0  0
   -7.9515  -28.2697  -34.9619 O   0  0  0  0  0  0  0  0  0  0  0  0
  -19.5149  -24.3975  -40.2939 Cl  0  0  0  0  0  0  0  0  0  0  0  0
  -16.7266  -25.3887  -41.6036 Cl  0  0  0  0  0  0  0  0  0  0  0  0
   -2.9404  -33.9167  -33.3056 H   0  0  0  0  0  0  0  0  0  0  0  0
   -2.0077  -31.7910  -32.4712 H   0  0  0  0  0  0  0  0  0  0  0  0
   -5.0552  -33.9530  -34.6091 H   0  0  0  0  0  0  0  0  0  0  0  0
   -3.1661  -29.6269  -32.9212 H   0  0  0  0  0  0  0  0  0  0  0  0
  -11.4756  -27.2516  -37.6327 H   0  0  0  0  0  0  0  0  0  0  0  0
  -17.0063  -23.9581  -36.1917 H   0  0  0  0  0  0  0  0  0  0  0  0
   -9.4188  -28.5187  -37.1414 H   0  0  0  0  0  0  0  0  0  0  0  0
  -19.0340  -23.8224  -37.5702 H   0  0  0  0  0  0  0  0  0  0  0  0
   -9.0258  -26.4553  -33.3889 H   0  0  0  0  0  0  0  0  0  0  0  0
  -14.7621  -25.3485  -39.5885 H   0  0  0  0  0  0  0  0  0  0  0  0
  -12.1941  -25.2069  -33.2029 H   0  0  0  0  0  0  0  0  0  0  0  0
  -10.5151  -24.8194  -32.7531 H   0  0  0  0  0  0  0  0  0  0  0  0
  -11.3043  -23.9126  -34.0425 H   0  0  0  0  0  0  0  0  0  0  0  0
   -7.5457  -29.1788  -36.7610 H   0  0  0  0  0  0  0  0  0  0  0  0
   -8.6941  -30.0333  -35.7182 H   0  0  0  0  0  0  0  0  0  0  0  0
   -5.5394  -28.6460  -34.2584 H   0  0  0  0  0  0  0  0  0  0  0  0
  -14.4619  -23.9952  -36.3282 H   0  0  0  0  0  0  0  0  0  0  0  0
  -12.7560  -24.5725  -35.5310 H   0  0  0  0  0  0  0  0  0  0  0  0
  1  2  2  0  0  0  0
  1  3  1  0  0  0  0
  2  4  1  0  0  0  0
  3 12  2  0  0  0  0
  4 13  2  0  0  0  0
  5  7  1  0  0  0  0
  5 15  2  0  0  0  0
  6  8  1  0  0  0  0
  6 14  2  0  0  0  0
  7 16  2  0  0  0  0
  8 17  2  0  0  0  0
  9 11  2  0  0  0  0
  9 16  1  0  0  0  0
 10 14  1  0  0  0  0
 10 18  2  0  0  0  0
 11 15  1  0  0  0  0
 11 21  1  0  0  0  0
 12 13  1  0  0  0  0
 12 23  1  0  0  0  0
 13 24  1  0  0  0  0
 14 25  1  0  0  0  0
 15 26  1  0  0  0  0
 16 28  1  0  0  0  0
 17 18  1  0  0  0  0
 17 29  1  0  0  0  0
 18 30  1  0  0  0  0
 19 22  1  0  0  0  0
 19 23  2  0  0  0  0
 19 24  1  0  0  0  0
 20 25  1  0  0  0  0
 20 26  1  0  0  0  0
 20 27  2  0  0  0  0
 22 28  1  0  0  0  0
  1 31  1  0  0  0  0
  2 32  1  0  0  0  0
  3 33  1  0  0  0  0
  4 34  1  0  0  0  0
  5 35  1  0  0  0  0
  6 36  1  0  0  0  0
  7 37  1  0  0  0  0
  8 38  1  0  0  0  0
  9 39  1  0  0  0  0
 10 40  1  0  0  0  0
 21 41  1  0  0  0  0
 21 42  1  0  0  0  0
 21 43  1  0  0  0  0
 22 44  1  0  0  0  0
 22 45  1  0  0  0  0
 24 46  1  0  0  0  0
 25 47  1  0  0  0  0
 26 48  1  0  0  0  0
M  END
> <Name>
EZ_14

> <SourceTag>
EZ_14

> <Activity_FLAP>
0.7

> <Activity_sEH>
56.9

> <Gold.Version>
5.2

> <Gold.Id.Protein>
6HGV|6HGV_protein|mol2

> <Gold.Goldscore.Fitness>
77.6685

> <Gold.Goldscore.Internal.Vdw>
-12.4360

> <Gold.Goldscore.Internal.Torsion>
-4.6131

> <Gold.Goldscore.External.Vdw>
55.4084

> <Gold.Goldscore.Internal.HBond>
0.0000

> <Gold.Goldscore.External.HBond>
7.5744

> <Gold.Goldscore.Internal.Correction>
-10.9566

> <Gold.Goldscore.Hbonds>
donor molecule, donor type, donor heavy atom, donor atom, acceptor molecule, acceptor atom, score
      L1  H    25    47       P1   853  0.98
      L1  H    26    48       P1   853  0.28

> <Gold.Goldscore.Internal.Vdw.Weighted>
-12.4360

> <Gold.Goldscore.Internal.Torsion.Weighted>
-4.6131

> <Gold.Goldscore.External.Vdw.Weighted>
76.1866

> <Gold.Goldscore.Internal.HBond.Weighted>
0.0000

> <Gold.Goldscore.External.HBond.Weighted>
7.5744

> <Gold.Goldscore.Internal.Correction.Weighted>
-10.9566

> <Gold.Protein.RotatedTorsions>
[ 3781 1176 1175 1172 ] final   49.44 input   60.00 | X-H torsion
[ 3847 1247 1246 1244 ] final  -87.79 input   60.00 | X-H torsion
[ 4507 1931 1930 1928 ] final  103.86 input   60.00 | X-H torsion
[ 3677 1070 1069 1066 ] final  -44.44 input   60.00 | X-H torsion
[ 3525  925  924  922 ] final  101.81 input   59.99 | X-H torsion
[ 4531 1957 1955 1953 ] final   -6.41 input   60.00 | X-H torsion

> <Gold.Protein.ActiveResidues>
 PHE267  PRO268  MET310  ASP335  TRP336  MET339  TYR343  THR360  PRO361  ILE363 
 PRO371  SER374  ILE375  ASN378  PHE381  TYR383  GLN384  PHE387  LEU408  LEU417 
 MET419  LEU428  TYR466  MET469  ASN472  ASP496  VAL498  LEU499  MET503  HIS524 
 TRP525 

> <Gold.Protein.RotatedAtoms>
   -2.2649  -30.1176  -30.5746 H   0  0  0  0  0  0  0  0  0  0  0  0  # atno 3525 bound_to 925 
  -12.5162  -23.7449  -31.0276 H   0  0  0  0  0  0  0  0  0  0  0  0  # atno 3677 bound_to 1070
  -10.6964  -37.4477  -32.9231 H   0  0  0  0  0  0  0  0  0  0  0  0  # atno 3781 bound_to 1176
  -15.9170  -27.4947  -37.4415 H   0  0  0  0  0  0  0  0  0  0  0  0  # atno 3847 bound_to 1247
  -12.4329  -24.0911  -39.1463 H   0  0  0  0  0  0  0  0  0  0  0  0  # atno 4507 bound_to 1931
   -2.7833  -32.4274  -36.7018 H   0  0  0  0  0  0  0  0  0  0  0  0  # atno 4531 bound_to 1957
  -10.0894  -36.5775  -34.1570 LP  0  0  0  0  0  0  0  0  0  0  0  0  # atno 5205 bound_to 1176
   -9.3203  -36.6039  -32.7167 LP  0  0  0  0  0  0  0  0  0  0  0  0  # atno 5206 bound_to 1176
  -14.3920  -27.7976  -37.9215 LP  0  0  0  0  0  0  0  0  0  0  0  0  # atno 5215 bound_to 1247
  -15.2503  -28.9490  -37.1442 LP  0  0  0  0  0  0  0  0  0  0  0  0  # atno 5216 bound_to 1247
  -13.4209  -25.3768  -39.2837 LP  0  0  0  0  0  0  0  0  0  0  0  0  # atno 5217 bound_to 1931
  -13.3454  -24.2697  -40.4817 LP  0  0  0  0  0  0  0  0  0  0  0  0  # atno 5218 bound_to 1931
  -11.1007  -22.9880  -31.2953 LP  0  0  0  0  0  0  0  0  0  0  0  0  # atno 5224 bound_to 1070
  -12.2332  -22.2954  -30.3442 LP  0  0  0  0  0  0  0  0  0  0  0  0  # atno 5225 bound_to 1070

$$$$
EZ_14|Lisa_paper2_min|sdf|2|dock9
  -GOLD-  10182016513D 1   1.00000     0.00000

 48 51  0  0  0  0  0  0  0  0  1 V2000
   -3.0506  -31.9458  -32.8527 C   0  0  0  0  0  0  0  0  0  0  0  0
   -3.5391  -33.1161  -33.4381 C   0  0  0  0  0  0  0  0  0  0  0  0
   -3.6977  -30.7186  -33.0447 C   0  0  0  0  0  0  0  0  0  0  0  0
   -4.6889  -33.1040  -34.2347 C   0  0  0  0  0  0  0  0  0  0  0  0
  -10.9724  -27.0952  -36.6294 C   0  0  0  0  0  0  0  0  0  0  0  0
  -17.0416  -24.4300  -37.1122 C   0  0  0  0  0  0  0  0  0  0  0  0
   -9.7750  -27.7679  -36.3865 C   0  0  0  0  0  0  0  0  0  0  0  0
  -18.1940  -24.3712  -37.8958 C   0  0  0  0  0  0  0  0  0  0  0  0
   -9.4713  -26.4938  -34.3563 C   0  0  0  0  0  0  0  0  0  0  0  0
  -15.7512  -25.0555  -39.0566 C   0  0  0  0  0  0  0  0  0  0  0  0
  -10.6688  -25.8210  -34.5994 C   0  0  0  0  0  0  0  0  0  0  0  0
   -4.8542  -30.6879  -33.8421 C   0  0  0  0  0  0  0  0  0  0  0  0
   -5.3167  -31.8707  -34.4121 C   0  0  0  0  0  0  0  0  0  0  0  0
  -15.8201  -24.7720  -37.6926 C   0  0  0  0  0  0  0  0  0  0  0  0
  -11.4193  -26.1218  -35.7360 C   0  0  0  0  0  0  0  0  0  0  0  0
   -9.0244  -27.4673  -35.2498 C   0  0  0  0  0  0  0  0  0  0  0  0
  -18.1250  -24.6547  -39.2599 C   0  0  0  0  0  0  0  0  0  0  0  0
  -16.9036  -24.9969  -39.8403 C   0  0  0  0  0  0  0  0  0  0  0  0
   -6.6024  -30.1506  -34.9441 C   0  0  0  0  0  0  0  0  0  0  0  0
  -13.5960  -25.7535  -36.9791 C   0  0  0  0  0  0  0  0  0  0  0  0
  -11.1226  -24.7830  -33.6249 C   0  0  0  0  0  0  0  0  0  0  0  0
   -7.7270  -29.4338  -35.5740 C   0  0  0  0  0  0  0  0  0  0  0  0
   -5.6655  -29.6303  -34.1836 N   0  0  0  0  0  0  0  0  0  0  0  0
   -6.4358  -31.4972  -35.1112 N   0  0  0  0  0  0  0  0  0  0  0  0
  -14.6512  -24.8308  -36.8975 N   0  0  0  0  0  0  0  0  0  0  0  0
  -12.6202  -25.4575  -35.9978 N   0  0  0  0  0  0  0  0  0  0  0  0
  -13.5245  -26.6805  -37.7796 O   0  0  0  0  0  0  0  0  0  0  0  0
   -7.8506  -28.1273  -35.0113 O   0  0  0  0  0  0  0  0  0  0  0  0
  -19.5881  -24.5679  -40.1764 Cl  0  0  0  0  0  0  0  0  0  0  0  0
  -16.7547  -25.3608  -41.5238 Cl  0  0  0  0  0  0  0  0  0  0  0  0
   -2.1548  -31.9873  -32.2382 H   0  0  0  0  0  0  0  0  0  0  0  0
   -3.0154  -34.0545  -33.2731 H   0  0  0  0  0  0  0  0  0  0  0  0
   -3.3104  -29.8153  -32.5843 H   0  0  0  0  0  0  0  0  0  0  0  0
   -5.0699  -34.0114  -34.6890 H   0  0  0  0  0  0  0  0  0  0  0  0
  -11.5485  -27.3374  -37.5193 H   0  0  0  0  0  0  0  0  0  0  0  0
  -17.1060  -24.2057  -36.0506 H   0  0  0  0  0  0  0  0  0  0  0  0
   -9.4324  -28.5255  -37.0861 H   0  0  0  0  0  0  0  0  0  0  0  0
  -19.1370  -24.1014  -37.4270 H   0  0  0  0  0  0  0  0  0  0  0  0
   -8.8836  -26.2614  -33.4714 H   0  0  0  0  0  0  0  0  0  0  0  0
  -14.7957  -25.3230  -39.5034 H   0  0  0  0  0  0  0  0  0  0  0  0
  -10.3723  -24.6485  -32.8376 H   0  0  0  0  0  0  0  0  0  0  0  0
  -11.2860  -23.8189  -34.1215 H   0  0  0  0  0  0  0  0  0  0  0  0
  -12.0734  -25.0676  -33.1580 H   0  0  0  0  0  0  0  0  0  0  0  0
   -7.5922  -29.3220  -36.6648 H   0  0  0  0  0  0  0  0  0  0  0  0
   -8.6868  -29.9606  -35.4276 H   0  0  0  0  0  0  0  0  0  0  0  0
   -7.0304  -32.1111  -35.6524 H   0  0  0  0  0  0  0  0  0  0  0  0
  -14.5648  -24.1171  -36.1784 H   0  0  0  0  0  0  0  0  0  0  0  0
  -12.8324  -24.6480  -35.4065 H   0  0  0  0  0  0  0  0  0  0  0  0
  1  2  2  0  0  0  0
  1  3  1  0  0  0  0
  2  4  1  0  0  0  0
  3 12  2  0  0  0  0
  4 13  2  0  0  0  0
  5  7  1  0  0  0  0
  5 15  2  0  0  0  0
  6  8  1  0  0  0  0
  6 14  2  0  0  0  0
  7 16  2  0  0  0  0
  8 17  2  0  0  0  0
  9 11  2  0  0  0  0
  9 16  1  0  0  0  0
 10 14  1  0  0  0  0
 10 18  2  0  0  0  0
 11 15  1  0  0  0  0
 11 21  1  0  0  0  0
 12 13  1  0  0  0  0
 12 23  1  0  0  0  0
 13 24  1  0  0  0  0
 14 25  1  0  0  0  0
 15 26  1  0  0  0  0
 16 28  1  0  0  0  0
 17 18  1  0  0  0  0
 17 29  1  0  0  0  0
 18 30  1  0  0  0  0
 19 22  1  0  0  0  0
 19 23  2  0  0  0  0
 19 24  1  0  0  0  0
 20 25  1  0  0  0  0
 20 26  1  0  0  0  0
 20 27  2  0  0  0  0
 22 28  1  0  0  0  0
  1 31  1  0  0  0  0
  2 32  1  0  0  0  0
  3 33  1  0  0  0  0
  4 34  1  0  0  0  0
  5 35  1  0  0  0  0
  6 36  1  0  0  0  0
  7 37  1  0  0  0  0
  8 38  1  0  0  0  0
  9 39  1  0  0  0  0
 10 40  1  0  0  0  0
 21 41  1  0  0  0  0
 21 42  1  0  0  0  0
 21 43  1  0  0  0  0
 22 44  1  0  0  0  0
 22 45  1  0  0  0  0
 24 46  1  0  0  0  0
 25 47  1  0  0  0  0
 26 48  1  0  0  0  0
M  END
> <Name>
EZ_14

> <SourceTag>
EZ_14

> <Activity_FLAP>
0.7

> <Activity_sEH>
56.9

> <Gold.Version>
5.2

> <Gold.Id.Protein>
6HGV|6HGV_protein|mol2

> <Gold.Goldscore.Fitness>
76.9611

> <Gold.Goldscore.Internal.Vdw>
-12.4219

> <Gold.Goldscore.Internal.Torsion>
-4.6951

> <Gold.Goldscore.External.Vdw>
56.1890

> <Gold.Goldscore.Internal.HBond>
0.0000

> <Gold.Goldscore.External.HBond>
6.4977

> <Gold.Goldscore.Internal.Correction>
-10.3206

> <Gold.Goldscore.Hbonds>
donor molecule, donor type, donor heavy atom, donor atom, acceptor molecule, acceptor atom, score
      P1  H  1247  3847       L1    27  0.07
      L1  H    25    47       P1   853  0.81
      L1  H    26    48       P1   853  0.25

> <Gold.Goldscore.Internal.Vdw.Weighted>
-12.4219

> <Gold.Goldscore.Internal.Torsion.Weighted>
-4.6951

> <Gold.Goldscore.External.Vdw.Weighted>
77.2598

> <Gold.Goldscore.Internal.HBond.Weighted>
0.0000

> <Gold.Goldscore.External.HBond.Weighted>
6.4977

> <Gold.Goldscore.Internal.Correction.Weighted>
-10.3206

> <Gold.Protein.RotatedTorsions>
[ 3781 1176 1175 1172 ] final  166.30 input   60.00 | X-H torsion
[ 3847 1247 1246 1244 ] final  138.49 input   60.00 | X-H torsion
[ 4507 1931 1930 1928 ] final  127.00 input   60.00 | X-H torsion
[ 3677 1070 1069 1066 ] final   -2.09 input   60.00 | X-H torsion
[ 3525  925  924  922 ] final  125.13 input   59.99 | X-H torsion
[ 4531 1957 1955 1953 ] final    9.29 input   60.00 | X-H torsion

> <Gold.Protein.ActiveResidues>
 PHE267  PRO268  MET310  ASP335  TRP336  MET339  TYR343  THR360  PRO361  ILE363 
 PRO371  SER374  ILE375  ASN378  PHE381  TYR383  GLN384  PHE387  LEU408  LEU417 
 MET419  LEU428  TYR466  MET469  ASN472  ASP496  VAL498  LEU499  MET503  HIS524 
 TRP525 

> <Gold.Protein.RotatedAtoms>
   -2.0952  -30.2211  -30.2525 H   0  0  0  0  0  0  0  0  0  0  0  0  # atno 3525 bound_to 925 
  -12.8060  -23.2862  -30.6239 H   0  0  0  0  0  0  0  0  0  0  0  0  # atno 3677 bound_to 1070
   -9.3444  -36.6355  -32.6832 H   0  0  0  0  0  0  0  0  0  0  0  0  # atno 3781 bound_to 1176
  -14.3296  -28.0068  -37.8687 H   0  0  0  0  0  0  0  0  0  0  0  0  # atno 3847 bound_to 1247
  -12.4667  -23.8809  -39.4557 H   0  0  0  0  0  0  0  0  0  0  0  0  # atno 4507 bound_to 1931
   -2.9484  -32.6207  -36.6737 H   0  0  0  0  0  0  0  0  0  0  0  0  # atno 4531 bound_to 1957
  -10.7256  -37.4481  -32.9660 LP  0  0  0  0  0  0  0  0  0  0  0  0  # atno 5205 bound_to 1176
  -10.0456  -36.5512  -34.1492 LP  0  0  0  0  0  0  0  0  0  0  0  0  # atno 5206 bound_to 1176
  -15.4580  -28.8820  -37.0883 LP  0  0  0  0  0  0  0  0  0  0  0  0  # atno 5215 bound_to 1247
  -15.7828  -27.3489  -37.5473 LP  0  0  0  0  0  0  0  0  0  0  0  0  # atno 5216 bound_to 1247
  -13.1846  -25.2709  -39.0080 LP  0  0  0  0  0  0  0  0  0  0  0  0  # atno 5217 bound_to 1931
  -13.5477  -24.5873  -40.4458 LP  0  0  0  0  0  0  0  0  0  0  0  0  # atno 5218 bound_to 1931
  -11.4347  -23.5592  -31.4565 LP  0  0  0  0  0  0  0  0  0  0  0  0  # atno 5224 bound_to 1070
  -11.6074  -22.1861  -30.5896 LP  0  0  0  0  0  0  0  0  0  0  0  0  # atno 5225 bound_to 1070

$$$$
EZ_14|Lisa_paper2_min|sdf|2|dock5
  -GOLD-  10182016503D 1   1.00000     0.00000

 48 51  0  0  0  0  0  0  0  0  1 V2000
   -3.4402  -32.6489  -33.0963 C   0  0  0  0  0  0  0  0  0  0  0  0
   -2.9505  -31.3678  -32.8322 C   0  0  0  0  0  0  0  0  0  0  0  0
   -4.6716  -32.8325  -33.7377 C   0  0  0  0  0  0  0  0  0  0  0  0
   -3.6705  -30.2257  -33.1981 C   0  0  0  0  0  0  0  0  0  0  0  0
  -11.2835  -27.3598  -36.6008 C   0  0  0  0  0  0  0  0  0  0  0  0
  -17.1509  -24.3672  -37.2553 C   0  0  0  0  0  0  0  0  0  0  0  0
  -10.0906  -28.0491  -36.3832 C   0  0  0  0  0  0  0  0  0  0  0  0
  -18.2783  -24.2397  -38.0666 C   0  0  0  0  0  0  0  0  0  0  0  0
   -9.4715  -26.4425  -34.6883 C   0  0  0  0  0  0  0  0  0  0  0  0
  -15.8189  -24.9216  -39.1932 C   0  0  0  0  0  0  0  0  0  0  0  0
  -10.6644  -25.7531  -34.9061 C   0  0  0  0  0  0  0  0  0  0  0  0
   -5.4085  -31.6963  -34.1124 C   0  0  0  0  0  0  0  0  0  0  0  0
   -4.8942  -30.4326  -33.8357 C   0  0  0  0  0  0  0  0  0  0  0  0
  -15.9211  -24.7080  -37.8186 C   0  0  0  0  0  0  0  0  0  0  0  0
  -11.5704  -26.2118  -35.8623 C   0  0  0  0  0  0  0  0  0  0  0  0
   -9.1846  -27.5906  -35.4269 C   0  0  0  0  0  0  0  0  0  0  0  0
  -18.1761  -24.4532  -39.4413 C   0  0  0  0  0  0  0  0  0  0  0  0
  -16.9463  -24.7941  -40.0046 C   0  0  0  0  0  0  0  0  0  0  0  0
   -6.8546  -30.3113  -34.8541 C   0  0  0  0  0  0  0  0  0  0  0  0
  -13.7103  -25.7386  -37.1334 C   0  0  0  0  0  0  0  0  0  0  0  0
  -10.9449  -24.5264  -34.1003 C   0  0  0  0  0  0  0  0  0  0  0  0
   -8.0354  -29.6723  -35.4643 C   0  0  0  0  0  0  0  0  0  0  0  0
   -6.6266  -31.6010  -34.7451 N   0  0  0  0  0  0  0  0  0  0  0  0
   -5.8398  -29.5661  -34.3211 N   0  0  0  0  0  0  0  0  0  0  0  0
  -14.7775  -24.8367  -36.9953 N   0  0  0  0  0  0  0  0  0  0  0  0
  -12.7695  -25.5341  -36.0962 N   0  0  0  0  0  0  0  0  0  0  0  0
  -13.6032  -26.5808  -38.0191 O   0  0  0  0  0  0  0  0  0  0  0  0
   -8.0152  -28.2668  -35.2131 O   0  0  0  0  0  0  0  0  0  0  0  0
  -19.6095  -24.2832  -40.3924 Cl  0  0  0  0  0  0  0  0  0  0  0  0
  -16.7567  -25.0732  -41.7002 Cl  0  0  0  0  0  0  0  0  0  0  0  0
   -2.8571  -33.5173  -32.8000 H   0  0  0  0  0  0  0  0  0  0  0  0
   -1.9920  -31.2552  -32.3314 H   0  0  0  0  0  0  0  0  0  0  0  0
   -5.0425  -33.8324  -33.9392 H   0  0  0  0  0  0  0  0  0  0  0  0
   -3.2915  -29.2307  -32.9949 H   0  0  0  0  0  0  0  0  0  0  0  0
  -11.9816  -27.7263  -37.3496 H   0  0  0  0  0  0  0  0  0  0  0  0
  -17.2411  -24.1972  -36.1855 H   0  0  0  0  0  0  0  0  0  0  0  0
   -9.8731  -28.9431  -36.9614 H   0  0  0  0  0  0  0  0  0  0  0  0
  -19.2282  -23.9719  -37.6107 H   0  0  0  0  0  0  0  0  0  0  0  0
   -8.7629  -26.0873  -33.9440 H   0  0  0  0  0  0  0  0  0  0  0  0
  -14.8571  -25.1885  -39.6267 H   0  0  0  0  0  0  0  0  0  0  0  0
  -10.0741  -24.2683  -33.4870 H   0  0  0  0  0  0  0  0  0  0  0  0
  -11.1825  -23.6736  -34.7477 H   0  0  0  0  0  0  0  0  0  0  0  0
  -11.8072  -24.6760  -33.4391 H   0  0  0  0  0  0  0  0  0  0  0  0
   -8.0718  -29.8208  -36.5584 H   0  0  0  0  0  0  0  0  0  0  0  0
   -8.9800  -30.0777  -35.0599 H   0  0  0  0  0  0  0  0  0  0  0  0
   -5.7918  -28.5563  -34.2897 H   0  0  0  0  0  0  0  0  0  0  0  0
  -14.7219  -24.1973  -36.2066 H   0  0  0  0  0  0  0  0  0  0  0  0
  -13.0092  -24.7890  -35.4349 H   0  0  0  0  0  0  0  0  0  0  0  0
  1  2  2  0  0  0  0
  1  3  1  0  0  0  0
  2  4  1  0  0  0  0
  3 12  2  0  0  0  0
  4 13  2  0  0  0  0
  5  7  1  0  0  0  0
  5 15  2  0  0  0  0
  6  8  1  0  0  0  0
  6 14  2  0  0  0  0
  7 16  2  0  0  0  0
  8 17  2  0  0  0  0
  9 11  2  0  0  0  0
  9 16  1  0  0  0  0
 10 14  1  0  0  0  0
 10 18  2  0  0  0  0
 11 15  1  0  0  0  0
 11 21  1  0  0  0  0
 12 13  1  0  0  0  0
 12 23  1  0  0  0  0
 13 24  1  0  0  0  0
 14 25  1  0  0  0  0
 15 26  1  0  0  0  0
 16 28  1  0  0  0  0
 17 18  1  0  0  0  0
 17 29  1  0  0  0  0
 18 30  1  0  0  0  0
 19 22  1  0  0  0  0
 19 23  2  0  0  0  0
 19 24  1  0  0  0  0
 20 25  1  0  0  0  0
 20 26  1  0  0  0  0
 20 27  2  0  0  0  0
 22 28  1  0  0  0  0
  1 31  1  0  0  0  0
  2 32  1  0  0  0  0
  3 33  1  0  0  0  0
  4 34  1  0  0  0  0
  5 35  1  0  0  0  0
  6 36  1  0  0  0  0
  7 37  1  0  0  0  0
  8 38  1  0  0  0  0
  9 39  1  0  0  0  0
 10 40  1  0  0  0  0
 21 41  1  0  0  0  0
 21 42  1  0  0  0  0
 21 43  1  0  0  0  0
 22 44  1  0  0  0  0
 22 45  1  0  0  0  0
 24 46  1  0  0  0  0
 25 47  1  0  0  0  0
 26 48  1  0  0  0  0
M  END
> <Name>
EZ_14

> <SourceTag>
EZ_14

> <Activity_FLAP>
0.7

> <Activity_sEH>
56.9

> <Gold.Version>
5.2

> <Gold.Id.Protein>
6HGV|6HGV_protein|mol2

> <Gold.Goldscore.Fitness>
75.3509

> <Gold.Goldscore.Internal.Vdw>
-12.4564

> <Gold.Goldscore.Internal.Torsion>
-4.4297

> <Gold.Goldscore.External.Vdw>
55.8427

> <Gold.Goldscore.Internal.HBond>
0.0000

> <Gold.Goldscore.External.HBond>
5.1327

> <Gold.Goldscore.Internal.Correction>
-10.3206

> <Gold.Goldscore.Hbonds>
donor molecule, donor type, donor heavy atom, donor atom, acceptor molecule, acceptor atom, score
      P1  H  1247  3847       L1    27  0.06
      L1  H    25    47       P1   853  0.60
      L1  H    26    48       P1   853  0.23

> <Gold.Goldscore.Internal.Vdw.Weighted>
-12.4564

> <Gold.Goldscore.Internal.Torsion.Weighted>
-4.4297

> <Gold.Goldscore.External.Vdw.Weighted>
76.7837

> <Gold.Goldscore.Internal.HBond.Weighted>
0.0000

> <Gold.Goldscore.External.HBond.Weighted>
5.1327

> <Gold.Goldscore.Internal.Correction.Weighted>
-10.3206

> <Gold.Protein.RotatedTorsions>
[ 3781 1176 1175 1172 ] final  -40.27 input   60.00 | X-H torsion
[ 3847 1247 1246 1244 ] final  141.89 input   60.00 | X-H torsion
[ 4507 1931 1930 1928 ] final  107.64 input   60.00 | X-H torsion
[ 3677 1070 1069 1066 ] final -157.07 input   60.00 | X-H torsion
[ 3525  925  924  922 ] final  -34.51 input   59.99 | X-H torsion
[ 4531 1957 1955 1953 ] final   41.99 input   60.00 | X-H torsion

> <Gold.Protein.ActiveResidues>
 PHE267  PRO268  MET310  ASP335  TRP336  MET339  TYR343  THR360  PRO361  ILE363 
 PRO371  SER374  ILE375  ASN378  PHE381  TYR383  GLN384  PHE387  LEU408  LEU417 
 MET419  LEU428  TYR466  MET469  ASN472  ASP496  VAL498  LEU499  MET503  HIS524 
 TRP525 

> <Gold.Protein.RotatedAtoms>
   -3.7715  -29.5180  -29.9490 H   0  0  0  0  0  0  0  0  0  0  0  0  # atno 3525 bound_to 925 
  -11.1338  -23.0962  -31.3377 H   0  0  0  0  0  0  0  0  0  0  0  0  # atno 3677 bound_to 1070
  -10.4803  -36.8667  -34.0893 H   0  0  0  0  0  0  0  0  0  0  0  0  # atno 3781 bound_to 1176
  -14.3422  -27.9548  -37.8836 H   0  0  0  0  0  0  0  0  0  0  0  0  # atno 3847 bound_to 1247
  -12.4314  -24.0503  -39.1927 H   0  0  0  0  0  0  0  0  0  0  0  0  # atno 4507 bound_to 1931
   -3.0989  -33.1254  -36.6538 H   0  0  0  0  0  0  0  0  0  0  0  0  # atno 4531 bound_to 1957
   -9.2397  -36.3872  -33.1516 LP  0  0  0  0  0  0  0  0  0  0  0  0  # atno 5205 bound_to 1176
  -10.3876  -37.3793  -32.5476 LP  0  0  0  0  0  0  0  0  0  0  0  0  # atno 5206 bound_to 1176
  -15.4075  -28.9031  -37.1001 LP  0  0  0  0  0  0  0  0  0  0  0  0  # atno 5215 bound_to 1247
  -15.8207  -27.3802  -37.5204 LP  0  0  0  0  0  0  0  0  0  0  0  0  # atno 5216 bound_to 1247
  -13.3853  -25.3681  -39.2334 LP  0  0  0  0  0  0  0  0  0  0  0  0  # atno 5217 bound_to 1931
  -13.3826  -24.3195  -40.4853 LP  0  0  0  0  0  0  0  0  0  0  0  0  # atno 5218 bound_to 1931
  -12.1258  -22.2450  -30.3683 LP  0  0  0  0  0  0  0  0  0  0  0  0  # atno 5224 bound_to 1070
  -12.6001  -23.6917  -30.9589 LP  0  0  0  0  0  0  0  0  0  0  0  0  # atno 5225 bound_to 1070

$$$$
EZ_14|Lisa_paper2_min|sdf|2|dock2
  -GOLD-  10182016503D 1   1.00000     0.00000

 48 51  0  0  0  0  0  0  0  0  1 V2000
   -3.2327  -33.0735  -33.3404 C   0  0  0  0  0  0  0  0  0  0  0  0
   -2.7140  -31.8497  -32.9112 C   0  0  0  0  0  0  0  0  0  0  0  0
   -4.4356  -33.1365  -34.0550 C   0  0  0  0  0  0  0  0  0  0  0  0
   -3.3756  -30.6468  -33.1794 C   0  0  0  0  0  0  0  0  0  0  0  0
  -10.6727  -27.2520  -36.7911 C   0  0  0  0  0  0  0  0  0  0  0  0
  -16.3785  -25.5989  -37.5291 C   0  0  0  0  0  0  0  0  0  0  0  0
   -9.6017  -28.0436  -36.3766 C   0  0  0  0  0  0  0  0  0  0  0  0
  -17.6554  -25.5820  -38.0902 C   0  0  0  0  0  0  0  0  0  0  0  0
   -9.2684  -26.5952  -34.4719 C   0  0  0  0  0  0  0  0  0  0  0  0
  -15.7750  -23.6643  -38.8443 C   0  0  0  0  0  0  0  0  0  0  0  0
  -10.3394  -25.8035  -34.8865 C   0  0  0  0  0  0  0  0  0  0  0  0
   -5.1137  -31.9377  -34.3332 C   0  0  0  0  0  0  0  0  0  0  0  0
   -4.5717  -30.7336  -33.8925 C   0  0  0  0  0  0  0  0  0  0  0  0
  -15.4383  -24.6399  -37.9061 C   0  0  0  0  0  0  0  0  0  0  0  0
  -11.0415  -26.1319  -36.0461 C   0  0  0  0  0  0  0  0  0  0  0  0
   -8.8995  -27.7153  -35.2169 C   0  0  0  0  0  0  0  0  0  0  0  0
  -17.9921  -24.6063  -39.0283 C   0  0  0  0  0  0  0  0  0  0  0  0
  -17.0518  -23.6473  -39.4055 C   0  0  0  0  0  0  0  0  0  0  0  0
   -6.4728  -30.4234  -34.9808 C   0  0  0  0  0  0  0  0  0  0  0  0
  -13.3433  -25.7728  -37.0419 C   0  0  0  0  0  0  0  0  0  0  0  0
  -10.7118  -24.6096  -34.0686 C   0  0  0  0  0  0  0  0  0  0  0  0
   -7.5990  -29.6749  -35.5695 C   0  0  0  0  0  0  0  0  0  0  0  0
   -6.2944  -31.7251  -35.0072 N   0  0  0  0  0  0  0  0  0  0  0  0
   -5.4617  -29.7822  -34.3207 N   0  0  0  0  0  0  0  0  0  0  0  0
  -14.1433  -24.6571  -37.3362 N   0  0  0  0  0  0  0  0  0  0  0  0
  -12.1157  -25.3504  -36.4787 N   0  0  0  0  0  0  0  0  0  0  0  0
  -13.6560  -26.9423  -37.2410 O   0  0  0  0  0  0  0  0  0  0  0  0
   -7.8498  -28.4918  -34.8102 O   0  0  0  0  0  0  0  0  0  0  0  0
  -19.5890  -24.6403  -39.6895 Cl  0  0  0  0  0  0  0  0  0  0  0  0
  -17.4085  -22.4147  -40.5641 Cl  0  0  0  0  0  0  0  0  0  0  0  0
   -2.6950  -33.9916  -33.1170 H   0  0  0  0  0  0  0  0  0  0  0  0
   -1.7788  -31.8310  -32.3569 H   0  0  0  0  0  0  0  0  0  0  0  0
   -4.8294  -34.0925  -34.3847 H   0  0  0  0  0  0  0  0  0  0  0  0
   -2.9739  -29.6961  -32.8481 H   0  0  0  0  0  0  0  0  0  0  0  0
  -11.2119  -27.5173  -37.6973 H   0  0  0  0  0  0  0  0  0  0  0  0
  -16.1269  -26.3627  -36.7978 H   0  0  0  0  0  0  0  0  0  0  0  0
   -9.3195  -28.9151  -36.9611 H   0  0  0  0  0  0  0  0  0  0  0  0
  -18.3760  -26.3362  -37.7834 H   0  0  0  0  0  0  0  0  0  0  0  0
   -8.7187  -26.3416  -33.5686 H   0  0  0  0  0  0  0  0  0  0  0  0
  -15.0367  -22.9196  -39.1354 H   0  0  0  0  0  0  0  0  0  0  0  0
  -10.7593  -23.7163  -34.7016 H   0  0  0  0  0  0  0  0  0  0  0  0
  -11.6867  -24.7492  -33.5860 H   0  0  0  0  0  0  0  0  0  0  0  0
   -9.9814  -24.4342  -33.2693 H   0  0  0  0  0  0  0  0  0  0  0  0
   -7.3990  -29.3722  -36.6130 H   0  0  0  0  0  0  0  0  0  0  0  0
   -8.5280  -30.2722  -35.5874 H   0  0  0  0  0  0  0  0  0  0  0  0
   -5.3813  -28.7847  -34.1736 H   0  0  0  0  0  0  0  0  0  0  0  0
  -13.7428  -23.7497  -37.1122 H   0  0  0  0  0  0  0  0  0  0  0  0
  -12.0115  -24.3359  -36.3789 H   0  0  0  0  0  0  0  0  0  0  0  0
  1  2  2  0  0  0  0
  1  3  1  0  0  0  0
  2  4  1  0  0  0  0
  3 12  2  0  0  0  0
  4 13  2  0  0  0  0
  5  7  1  0  0  0  0
  5 15  2  0  0  0  0
  6  8  1  0  0  0  0
  6 14  2  0  0  0  0
  7 16  2  0  0  0  0
  8 17  2  0  0  0  0
  9 11  2  0  0  0  0
  9 16  1  0  0  0  0
 10 14  1  0  0  0  0
 10 18  2  0  0  0  0
 11 15  1  0  0  0  0
 11 21  1  0  0  0  0
 12 13  1  0  0  0  0
 12 23  1  0  0  0  0
 13 24  1  0  0  0  0
 14 25  1  0  0  0  0
 15 26  1  0  0  0  0
 16 28  1  0  0  0  0
 17 18  1  0  0  0  0
 17 29  1  0  0  0  0
 18 30  1  0  0  0  0
 19 22  1  0  0  0  0
 19 23  2  0  0  0  0
 19 24  1  0  0  0  0
 20 25  1  0  0  0  0
 20 26  1  0  0  0  0
 20 27  2  0  0  0  0
 22 28  1  0  0  0  0
  1 31  1  0  0  0  0
  2 32  1  0  0  0  0
  3 33  1  0  0  0  0
  4 34  1  0  0  0  0
  5 35  1  0  0  0  0
  6 36  1  0  0  0  0
  7 37  1  0  0  0  0
  8 38  1  0  0  0  0
  9 39  1  0  0  0  0
 10 40  1  0  0  0  0
 21 41  1  0  0  0  0
 21 42  1  0  0  0  0
 21 43  1  0  0  0  0
 22 44  1  0  0  0  0
 22 45  1  0  0  0  0
 24 46  1  0  0  0  0
 25 47  1  0  0  0  0
 26 48  1  0  0  0  0
M  END
> <Name>
EZ_14

> <SourceTag>
EZ_14

> <Activity_FLAP>
0.7

> <Activity_sEH>
56.9

> <Gold.Version>
5.2

> <Gold.Id.Protein>
6HGV|6HGV_protein|mol2

> <Gold.Goldscore.Fitness>
75.2964

> <Gold.Goldscore.Internal.Vdw>
-11.0833

> <Gold.Goldscore.Internal.Torsion>
-6.2446

> <Gold.Goldscore.External.Vdw>
55.4909

> <Gold.Goldscore.Internal.HBond>
0.0000

> <Gold.Goldscore.External.HBond>
5.3677

> <Gold.Goldscore.Internal.Correction>
-10.9566

> <Gold.Goldscore.Hbonds>
donor molecule, donor type, donor heavy atom, donor atom, acceptor molecule, acceptor atom, score
      P1  H  1247  3847       L1    27  0.04
      L1  H    25    47       P1   854  0.66
      L1  H    26    48       P1   854  0.23

> <Gold.Goldscore.Internal.Vdw.Weighted>
-11.0833

> <Gold.Goldscore.Internal.Torsion.Weighted>
-6.2446

> <Gold.Goldscore.External.Vdw.Weighted>
76.3000

> <Gold.Goldscore.Internal.HBond.Weighted>
0.0000

> <Gold.Goldscore.External.HBond.Weighted>
5.3677

> <Gold.Goldscore.Internal.Correction.Weighted>
-10.9566

> <Gold.Protein.RotatedTorsions>
[ 3781 1176 1175 1172 ] final  175.64 input   60.00 | X-H torsion
[ 3847 1247 1246 1244 ] final  134.84 input   60.00 | X-H torsion
[ 4507 1931 1930 1928 ] final  125.22 input   60.00 | X-H torsion
[ 3677 1070 1069 1066 ] final  -58.73 input   60.00 | X-H torsion
[ 3525  925  924  922 ] final  129.68 input   59.99 | X-H torsion
[ 4531 1957 1955 1953 ] final   14.18 input   60.00 | X-H torsion

> <Gold.Protein.ActiveResidues>
 PHE267  PRO268  MET310  ASP335  TRP336  MET339  TYR343  THR360  PRO361  ILE363 
 PRO371  SER374  ILE375  ASN378  PHE381  TYR383  GLN384  PHE387  LEU408  LEU417 
 MET419  LEU428  TYR466  MET469  ASN472  ASP496  VAL498  LEU499  MET503  HIS524 
 TRP525 

> <Gold.Protein.RotatedAtoms>
   -2.0771  -30.2354  -30.1818 H   0  0  0  0  0  0  0  0  0  0  0  0  # atno 3525 bound_to 925 
  -12.3384  -23.8203  -31.1579 H   0  0  0  0  0  0  0  0  0  0  0  0  # atno 3677 bound_to 1070
   -9.2903  -36.5553  -32.8010 H   0  0  0  0  0  0  0  0  0  0  0  0  # atno 3781 bound_to 1176
  -14.3195  -28.0629  -37.8512 H   0  0  0  0  0  0  0  0  0  0  0  0  # atno 3847 bound_to 1247
  -12.4605  -23.8934  -39.4301 H   0  0  0  0  0  0  0  0  0  0  0  0  # atno 4507 bound_to 1931
   -2.9886  -32.6894  -36.6673 H   0  0  0  0  0  0  0  0  0  0  0  0  # atno 4531 bound_to 1957
  -10.6505  -37.4480  -32.8322 LP  0  0  0  0  0  0  0  0  0  0  0  0  # atno 5205 bound_to 1176
  -10.1752  -36.6320  -34.1644 LP  0  0  0  0  0  0  0  0  0  0  0  0  # atno 5206 bound_to 1176
  -15.5110  -28.8562  -37.0773 LP  0  0  0  0  0  0  0  0  0  0  0  0  # atno 5215 bound_to 1247
  -15.7400  -27.3182  -37.5758 LP  0  0  0  0  0  0  0  0  0  0  0  0  # atno 5216 bound_to 1247
  -13.2040  -25.2834  -39.0261 LP  0  0  0  0  0  0  0  0  0  0  0  0  # atno 5217 bound_to 1931
  -13.5345  -24.5622  -40.4535 LP  0  0  0  0  0  0  0  0  0  0  0  0  # atno 5218 bound_to 1931
  -11.0861  -22.7815  -31.1849 LP  0  0  0  0  0  0  0  0  0  0  0  0  # atno 5224 bound_to 1070
  -12.4269  -22.4261  -30.3233 LP  0  0  0  0  0  0  0  0  0  0  0  0  # atno 5225 bound_to 1070

$$$$
EZ_14|Lisa_paper2_min|sdf|2|dock10
  -GOLD-  10182016513D 1   1.00000     0.00000

 48 51  0  0  0  0  0  0  0  0  1 V2000
   -2.7324  -32.0015  -33.0183 C   0  0  0  0  0  0  0  0  0  0  0  0
   -3.2437  -33.2279  -33.4491 C   0  0  0  0  0  0  0  0  0  0  0  0
   -3.4255  -30.8077  -33.2549 C   0  0  0  0  0  0  0  0  0  0  0  0
   -4.4630  -33.3070  -34.1301 C   0  0  0  0  0  0  0  0  0  0  0  0
  -10.8633  -27.4240  -36.6633 C   0  0  0  0  0  0  0  0  0  0  0  0
  -15.3731  -23.1757  -38.9489 C   0  0  0  0  0  0  0  0  0  0  0  0
   -9.9279  -28.3396  -36.1815 C   0  0  0  0  0  0  0  0  0  0  0  0
  -16.6096  -23.0042  -39.5712 C   0  0  0  0  0  0  0  0  0  0  0  0
   -9.4880  -26.8970  -34.2941 C   0  0  0  0  0  0  0  0  0  0  0  0
  -16.2257  -25.1161  -37.7893 C   0  0  0  0  0  0  0  0  0  0  0  0
  -10.4234  -25.9813  -34.7759 C   0  0  0  0  0  0  0  0  0  0  0  0
   -4.6521  -30.8686  -33.9377 C   0  0  0  0  0  0  0  0  0  0  0  0
   -5.1358  -32.1056  -34.3545 C   0  0  0  0  0  0  0  0  0  0  0  0
  -15.1811  -24.2318  -38.0580 C   0  0  0  0  0  0  0  0  0  0  0  0
  -11.1111  -26.2449  -35.9605 C   0  0  0  0  0  0  0  0  0  0  0  0
   -9.2402  -28.0762  -34.9969 C   0  0  0  0  0  0  0  0  0  0  0  0
  -17.6542  -23.8887  -39.3025 C   0  0  0  0  0  0  0  0  0  0  0  0
  -17.4623  -24.9447  -38.4115 C   0  0  0  0  0  0  0  0  0  0  0  0
   -6.5090  -30.4624  -34.9107 C   0  0  0  0  0  0  0  0  0  0  0  0
  -13.2977  -25.6096  -37.0714 C   0  0  0  0  0  0  0  0  0  0  0  0
  -10.6680  -24.7266  -34.0021 C   0  0  0  0  0  0  0  0  0  0  0  0
   -7.7054  -29.8244  -35.4908 C   0  0  0  0  0  0  0  0  0  0  0  0
   -5.5184  -29.8599  -34.2919 N   0  0  0  0  0  0  0  0  0  0  0  0
   -6.3246  -31.8155  -34.9737 N   0  0  0  0  0  0  0  0  0  0  0  0
  -13.9264  -24.4057  -37.4275 N   0  0  0  0  0  0  0  0  0  0  0  0
  -12.0503  -25.3393  -36.4603 N   0  0  0  0  0  0  0  0  0  0  0  0
  -13.7560  -26.7320  -37.2595 O   0  0  0  0  0  0  0  0  0  0  0  0
   -8.3234  -28.9743  -34.5242 O   0  0  0  0  0  0  0  0  0  0  0  0
  -19.1631  -23.6212  -40.1025 Cl  0  0  0  0  0  0  0  0  0  0  0  0
  -18.7183  -26.0719  -38.0364 Cl  0  0  0  0  0  0  0  0  0  0  0  0
   -1.7821  -31.9724  -32.4911 H   0  0  0  0  0  0  0  0  0  0  0  0
   -2.6831  -34.1386  -33.2529 H   0  0  0  0  0  0  0  0  0  0  0  0
   -3.0199  -29.8602  -32.9150 H   0  0  0  0  0  0  0  0  0  0  0  0
   -4.8617  -34.2580  -34.4642 H   0  0  0  0  0  0  0  0  0  0  0  0
  -11.3924  -27.6398  -37.5884 H   0  0  0  0  0  0  0  0  0  0  0  0
  -14.5653  -22.4817  -39.1664 H   0  0  0  0  0  0  0  0  0  0  0  0
   -9.7396  -29.2566  -36.7333 H   0  0  0  0  0  0  0  0  0  0  0  0
  -16.7408  -22.1766  -40.2638 H   0  0  0  0  0  0  0  0  0  0  0  0
   -8.9499  -26.6943  -33.3711 H   0  0  0  0  0  0  0  0  0  0  0  0
  -16.0703  -25.9374  -37.0924 H   0  0  0  0  0  0  0  0  0  0  0  0
  -10.0130  -24.6888  -33.1244 H   0  0  0  0  0  0  0  0  0  0  0  0
  -10.4799  -23.8390  -34.6181 H   0  0  0  0  0  0  0  0  0  0  0  0
  -11.7099  -24.6668  -33.6646 H   0  0  0  0  0  0  0  0  0  0  0  0
   -7.4631  -29.2105  -36.3768 H   0  0  0  0  0  0  0  0  0  0  0  0
   -8.4530  -30.5687  -35.8183 H   0  0  0  0  0  0  0  0  0  0  0  0
   -6.9515  -32.4856  -35.3994 H   0  0  0  0  0  0  0  0  0  0  0  0
  -13.4176  -23.5541  -37.2046 H   0  0  0  0  0  0  0  0  0  0  0  0
  -11.8148  -24.3454  -36.3778 H   0  0  0  0  0  0  0  0  0  0  0  0
  1  2  2  0  0  0  0
  1  3  1  0  0  0  0
  2  4  1  0  0  0  0
  3 12  2  0  0  0  0
  4 13  2  0  0  0  0
  5  7  1  0  0  0  0
  5 15  2  0  0  0  0
  6  8  1  0  0  0  0
  6 14  2  0  0  0  0
  7 16  2  0  0  0  0
  8 17  2  0  0  0  0
  9 11  2  0  0  0  0
  9 16  1  0  0  0  0
 10 14  1  0  0  0  0
 10 18  2  0  0  0  0
 11 15  1  0  0  0  0
 11 21  1  0  0  0  0
 12 13  1  0  0  0  0
 12 23  1  0  0  0  0
 13 24  1  0  0  0  0
 14 25  1  0  0  0  0
 15 26  1  0  0  0  0
 16 28  1  0  0  0  0
 17 18  1  0  0  0  0
 17 29  1  0  0  0  0
 18 30  1  0  0  0  0
 19 22  1  0  0  0  0
 19 23  2  0  0  0  0
 19 24  1  0  0  0  0
 20 25  1  0  0  0  0
 20 26  1  0  0  0  0
 20 27  2  0  0  0  0
 22 28  1  0  0  0  0
  1 31  1  0  0  0  0
  2 32  1  0  0  0  0
  3 33  1  0  0  0  0
  4 34  1  0  0  0  0
  5 35  1  0  0  0  0
  6 36  1  0  0  0  0
  7 37  1  0  0  0  0
  8 38  1  0  0  0  0
  9 39  1  0  0  0  0
 10 40  1  0  0  0  0
 21 41  1  0  0  0  0
 21 42  1  0  0  0  0
 21 43  1  0  0  0  0
 22 44  1  0  0  0  0
 22 45  1  0  0  0  0
 24 46  1  0  0  0  0
 25 47  1  0  0  0  0
 26 48  1  0  0  0  0
M  END
> <Name>
EZ_14

> <SourceTag>
EZ_14

> <Activity_FLAP>
0.7

> <Activity_sEH>
56.9

> <Gold.Version>
5.2

> <Gold.Id.Protein>
6HGV|6HGV_protein|mol2

> <Gold.Goldscore.Fitness>
75.0245

> <Gold.Goldscore.Internal.Vdw>
-6.6021

> <Gold.Goldscore.Internal.Torsion>
-6.6487

> <Gold.Goldscore.External.Vdw>
53.3927

> <Gold.Goldscore.Internal.HBond>
0.0000

> <Gold.Goldscore.External.HBond>
4.5398

> <Gold.Goldscore.Internal.Correction>
-10.3206

> <Gold.Goldscore.Hbonds>
donor molecule, donor type, donor heavy atom, donor atom, acceptor molecule, acceptor atom, score
      P1  H  1247  3847       L1    27  0.20
      L1  H    25    47       P1   854  0.61
      L1  H    26    48       P1   854  0.08

> <Gold.Goldscore.Internal.Vdw.Weighted>
-6.6021

> <Gold.Goldscore.Internal.Torsion.Weighted>
-6.6487

> <Gold.Goldscore.External.Vdw.Weighted>
73.4149

> <Gold.Goldscore.Internal.HBond.Weighted>
0.0000

> <Gold.Goldscore.External.HBond.Weighted>
4.5398

> <Gold.Goldscore.Internal.Correction.Weighted>
-10.3206

> <Gold.Protein.RotatedTorsions>
[ 3781 1176 1175 1172 ] final -120.85 input   60.00 | X-H torsion
[ 3847 1247 1246 1244 ] final  169.16 input   60.00 | X-H torsion
[ 4507 1931 1930 1928 ] final  157.53 input   60.00 | X-H torsion
[ 3677 1070 1069 1066 ] final  -36.13 input   60.00 | X-H torsion
[ 3525  925  924  922 ] final  140.41 input   59.99 | X-H torsion
[ 4531 1957 1955 1953 ] final  -19.00 input   60.00 | X-H torsion

> <Gold.Protein.ActiveResidues>
 PHE267  PRO268  MET310  ASP335  TRP336  MET339  TYR343  THR360  PRO361  ILE363 
 PRO371  SER374  ILE375  ASN378  PHE381  TYR383  GLN384  PHE387  LEU408  LEU417 
 MET419  LEU428  TYR466  MET469  ASN472  ASP496  VAL498  LEU499  MET503  HIS524 
 TRP525 

> <Gold.Protein.RotatedAtoms>
   -2.0557  -30.2605  -30.0099 H   0  0  0  0  0  0  0  0  0  0  0  0  # atno 3525 bound_to 925 
  -12.6041  -23.6799  -30.9473 H   0  0  0  0  0  0  0  0  0  0  0  0  # atno 3677 bound_to 1070
   -9.4596  -36.3159  -33.7418 H   0  0  0  0  0  0  0  0  0  0  0  0  # atno 3781 bound_to 1176
  -14.5449  -27.5686  -37.9518 H   0  0  0  0  0  0  0  0  0  0  0  0  # atno 3847 bound_to 1247
  -12.6552  -23.7786  -39.8995 H   0  0  0  0  0  0  0  0  0  0  0  0  # atno 4507 bound_to 1931
   -2.6176  -32.3098  -36.7312 H   0  0  0  0  0  0  0  0  0  0  0  0  # atno 4531 bound_to 1957
   -9.8514  -37.0899  -32.3651 LP  0  0  0  0  0  0  0  0  0  0  0  0  # atno 5205 bound_to 1176
  -10.8038  -37.2312  -33.6841 LP  0  0  0  0  0  0  0  0  0  0  0  0  # atno 5206 bound_to 1176
  -14.9901  -28.9630  -37.2409 LP  0  0  0  0  0  0  0  0  0  0  0  0  # atno 5215 bound_to 1247
  -16.0340  -27.7092  -37.3109 LP  0  0  0  0  0  0  0  0  0  0  0  0  # atno 5216 bound_to 1247
  -12.8504  -24.9659  -38.8040 LP  0  0  0  0  0  0  0  0  0  0  0  0  # atno 5217 bound_to 1931
  -13.6922  -24.9953  -40.2029 LP  0  0  0  0  0  0  0  0  0  0  0  0  # atno 5218 bound_to 1931
  -11.1337  -23.1095  -31.3483 LP  0  0  0  0  0  0  0  0  0  0  0  0  # atno 5224 bound_to 1070
  -12.1117  -22.2395  -30.3720 LP  0  0  0  0  0  0  0  0  0  0  0  0  # atno 5225 bound_to 1070

$$$$
EZ_14|Lisa_paper2_min|sdf|2|dock7
  -GOLD-  10182016503D 1   1.00000     0.00000

 48 51  0  0  0  0  0  0  0  0  1 V2000
   -3.5371  -32.9111  -33.6263 C   0  0  0  0  0  0  0  0  0  0  0  0
   -3.0445  -31.6801  -33.1871 C   0  0  0  0  0  0  0  0  0  0  0  0
   -4.7629  -32.9996  -34.2980 C   0  0  0  0  0  0  0  0  0  0  0  0
   -3.7560  -30.4951  -33.4021 C   0  0  0  0  0  0  0  0  0  0  0  0
  -11.3467  -27.3008  -36.5688 C   0  0  0  0  0  0  0  0  0  0  0  0
  -17.1122  -24.1705  -37.4256 C   0  0  0  0  0  0  0  0  0  0  0  0
  -10.1984  -28.0374  -36.2783 C   0  0  0  0  0  0  0  0  0  0  0  0
  -18.2288  -24.0528  -38.2531 C   0  0  0  0  0  0  0  0  0  0  0  0
   -9.6437  -26.4783  -34.5181 C   0  0  0  0  0  0  0  0  0  0  0  0
  -15.7829  -24.8685  -39.3183 C   0  0  0  0  0  0  0  0  0  0  0  0
  -10.7920  -25.7416  -34.8087 C   0  0  0  0  0  0  0  0  0  0  0  0
   -5.4911  -31.8191  -34.5225 C   0  0  0  0  0  0  0  0  0  0  0  0
   -4.9741  -30.6072  -34.0730 C   0  0  0  0  0  0  0  0  0  0  0  0
  -15.8892  -24.5783  -37.9582 C   0  0  0  0  0  0  0  0  0  0  0  0
  -11.6435  -26.1530  -35.8341 C   0  0  0  0  0  0  0  0  0  0  0  0
   -9.3469  -27.6262  -35.2529 C   0  0  0  0  0  0  0  0  0  0  0  0
  -18.1225  -24.3429  -39.6134 C   0  0  0  0  0  0  0  0  0  0  0  0
  -16.8995  -24.7508  -40.1460 C   0  0  0  0  0  0  0  0  0  0  0  0
   -6.9238  -30.3385  -35.0837 C   0  0  0  0  0  0  0  0  0  0  0  0
  -13.7484  -25.6734  -37.1602 C   0  0  0  0  0  0  0  0  0  0  0  0
  -11.0844  -24.5162  -34.0051 C   0  0  0  0  0  0  0  0  0  0  0  0
   -8.0958  -29.6164  -35.6129 C   0  0  0  0  0  0  0  0  0  0  0  0
   -6.7025  -31.6323  -35.1478 N   0  0  0  0  0  0  0  0  0  0  0  0
   -5.9112  -29.6778  -34.4457 N   0  0  0  0  0  0  0  0  0  0  0  0
  -14.7565  -24.6970  -37.1184 N   0  0  0  0  0  0  0  0  0  0  0  0
  -12.7972  -25.4275  -36.1415 N   0  0  0  0  0  0  0  0  0  0  0  0
  -13.6942  -26.6035  -37.9583 O   0  0  0  0  0  0  0  0  0  0  0  0
   -8.2214  -28.3488  -34.9677 O   0  0  0  0  0  0  0  0  0  0  0  0
  -19.5425  -24.1810  -40.5858 Cl  0  0  0  0  0  0  0  0  0  0  0  0
  -16.7054  -25.1264  -41.8223 Cl  0  0  0  0  0  0  0  0  0  0  0  0
   -2.9607  -33.8148  -33.4446 H   0  0  0  0  0  0  0  0  0  0  0  0
   -2.0905  -31.6416  -32.6669 H   0  0  0  0  0  0  0  0  0  0  0  0
   -5.1361  -33.9610  -34.6360 H   0  0  0  0  0  0  0  0  0  0  0  0
   -3.3747  -29.5388  -33.0629 H   0  0  0  0  0  0  0  0  0  0  0  0
  -12.0024  -27.6306  -37.3711 H   0  0  0  0  0  0  0  0  0  0  0  0
  -17.2055  -23.9405  -36.3673 H   0  0  0  0  0  0  0  0  0  0  0  0
   -9.9729  -28.9310  -36.8540 H   0  0  0  0  0  0  0  0  0  0  0  0
  -19.1736  -23.7321  -37.8212 H   0  0  0  0  0  0  0  0  0  0  0  0
   -8.9777  -26.1600  -33.7197 H   0  0  0  0  0  0  0  0  0  0  0  0
  -14.8264  -25.1874  -39.7278 H   0  0  0  0  0  0  0  0  0  0  0  0
  -11.1992  -23.6487  -34.6649 H   0  0  0  0  0  0  0  0  0  0  0  0
  -12.0049  -24.6364  -33.4212 H   0  0  0  0  0  0  0  0  0  0  0  0
  -10.2776  -24.3093  -33.2915 H   0  0  0  0  0  0  0  0  0  0  0  0
   -8.0198  -29.4374  -36.7004 H   0  0  0  0  0  0  0  0  0  0  0  0
   -9.0341  -30.1763  -35.4507 H   0  0  0  0  0  0  0  0  0  0  0  0
   -5.8591  -28.6817  -34.2777 H   0  0  0  0  0  0  0  0  0  0  0  0
  -14.6611  -23.9881  -36.3958 H   0  0  0  0  0  0  0  0  0  0  0  0
  -12.9898  -24.6075  -35.5580 H   0  0  0  0  0  0  0  0  0  0  0  0
  1  2  2  0  0  0  0
  1  3  1  0  0  0  0
  2  4  1  0  0  0  0
  3 12  2  0  0  0  0
  4 13  2  0  0  0  0
  5  7  1  0  0  0  0
  5 15  2  0  0  0  0
  6  8  1  0  0  0  0
  6 14  2  0  0  0  0
  7 16  2  0  0  0  0
  8 17  2  0  0  0  0
  9 11  2  0  0  0  0
  9 16  1  0  0  0  0
 10 14  1  0  0  0  0
 10 18  2  0  0  0  0
 11 15  1  0  0  0  0
 11 21  1  0  0  0  0
 12 13  1  0  0  0  0
 12 23  1  0  0  0  0
 13 24  1  0  0  0  0
 14 25  1  0  0  0  0
 15 26  1  0  0  0  0
 16 28  1  0  0  0  0
 17 18  1  0  0  0  0
 17 29  1  0  0  0  0
 18 30  1  0  0  0  0
 19 22  1  0  0  0  0
 19 23  2  0  0  0  0
 19 24  1  0  0  0  0
 20 25  1  0  0  0  0
 20 26  1  0  0  0  0
 20 27  2  0  0  0  0
 22 28  1  0  0  0  0
  1 31  1  0  0  0  0
  2 32  1  0  0  0  0
  3 33  1  0  0  0  0
  4 34  1  0  0  0  0
  5 35  1  0  0  0  0
  6 36  1  0  0  0  0
  7 37  1  0  0  0  0
  8 38  1  0  0  0  0
  9 39  1  0  0  0  0
 10 40  1  0  0  0  0
 21 41  1  0  0  0  0
 21 42  1  0  0  0  0
 21 43  1  0  0  0  0
 22 44  1  0  0  0  0
 22 45  1  0  0  0  0
 24 46  1  0  0  0  0
 25 47  1  0  0  0  0
 26 48  1  0  0  0  0
M  END
> <Name>
EZ_14

> <SourceTag>
EZ_14

> <Activity_FLAP>
0.7

> <Activity_sEH>
56.9

> <Gold.Version>
5.2

> <Gold.Id.Protein>
6HGV|6HGV_protein|mol2

> <Gold.Goldscore.Fitness>
74.1841

> <Gold.Goldscore.Internal.Vdw>
-17.2856

> <Gold.Goldscore.Internal.Torsion>
-3.6685

> <Gold.Goldscore.External.Vdw>
56.3291

> <Gold.Goldscore.Internal.HBond>
0.0000

> <Gold.Goldscore.External.HBond>
7.3651

> <Gold.Goldscore.Internal.Correction>
-10.3206

> <Gold.Goldscore.Hbonds>
donor molecule, donor type, donor heavy atom, donor atom, acceptor molecule, acceptor atom, score
      L1  H    25    47       P1   853  0.82
      L1  H    26    48       P1   853  0.41

> <Gold.Goldscore.Internal.Vdw.Weighted>
-17.2856

> <Gold.Goldscore.Internal.Torsion.Weighted>
-3.6685

> <Gold.Goldscore.External.Vdw.Weighted>
77.4525

> <Gold.Goldscore.Internal.HBond.Weighted>
0.0000

> <Gold.Goldscore.External.HBond.Weighted>
7.3651

> <Gold.Goldscore.Internal.Correction.Weighted>
-10.3206

> <Gold.Protein.RotatedTorsions>
[ 3781 1176 1175 1172 ] final   50.51 input   60.00 | X-H torsion
[ 3847 1247 1246 1244 ] final  -70.74 input   60.00 | X-H torsion
[ 4507 1931 1930 1928 ] final  113.71 input   60.00 | X-H torsion
[ 3677 1070 1069 1066 ] final  168.23 input   60.00 | X-H torsion
[ 3525  925  924  922 ] final  105.30 input   59.99 | X-H torsion
[ 4531 1957 1955 1953 ] final   59.16 input   60.00 | X-H torsion

> <Gold.Protein.ActiveResidues>
 PHE267  PRO268  MET310  ASP335  TRP336  MET339  TYR343  THR360  PRO361  ILE363 
 PRO371  SER374  ILE375  ASN378  PHE381  TYR383  GLN384  PHE387  LEU408  LEU417 
 MET419  LEU428  TYR466  MET469  ASN472  ASP496  VAL498  LEU499  MET503  HIS524 
 TRP525 

> <Gold.Protein.RotatedAtoms>
   -2.2318  -30.1360  -30.5318 H   0  0  0  0  0  0  0  0  0  0  0  0  # atno 3525 bound_to 925 
  -11.1243  -22.6091  -31.0650 H   0  0  0  0  0  0  0  0  0  0  0  0  # atno 3677 bound_to 1070
  -10.6880  -37.4478  -32.9078 H   0  0  0  0  0  0  0  0  0  0  0  0  # atno 3781 bound_to 1176
  -16.0293  -27.7140  -37.3136 H   0  0  0  0  0  0  0  0  0  0  0  0  # atno 3847 bound_to 1247
  -12.4348  -23.9897  -39.2710 H   0  0  0  0  0  0  0  0  0  0  0  0  # atno 4507 bound_to 1931
   -3.0605  -33.4021  -36.6659 H   0  0  0  0  0  0  0  0  0  0  0  0  # atno 4531 bound_to 1957
  -10.1042  -36.5867  -34.1590 LP  0  0  0  0  0  0  0  0  0  0  0  0  # atno 5205 bound_to 1176
   -9.3139  -36.5946  -32.7301 LP  0  0  0  0  0  0  0  0  0  0  0  0  # atno 5206 bound_to 1176
  -14.5406  -27.5629  -37.9530 LP  0  0  0  0  0  0  0  0  0  0  0  0  # atno 5215 bound_to 1247
  -14.9886  -28.9628  -37.2416 LP  0  0  0  0  0  0  0  0  0  0  0  0  # atno 5216 bound_to 1247
  -13.3252  -25.3469  -39.1565 LP  0  0  0  0  0  0  0  0  0  0  0  0  # atno 5217 bound_to 1931
  -13.4392  -24.4017  -40.4833 LP  0  0  0  0  0  0  0  0  0  0  0  0  # atno 5218 bound_to 1931
  -12.5783  -22.5771  -30.3349 LP  0  0  0  0  0  0  0  0  0  0  0  0  # atno 5224 bound_to 1070
  -12.1573  -23.8502  -31.2669 LP  0  0  0  0  0  0  0  0  0  0  0  0  # atno 5225 bound_to 1070

$$$$
EZ_15|Lisa_paper2_min|sdf|3|dock1
  -GOLD-  10182016513D 1   1.00000     0.00000

 63 66  0  0  0  0  0  0  0  0  1 V2000
   -3.5151  -32.1267  -31.2800 C   0  0  0  0  0  0  0  0  0  0  0  0
   -4.5052  -32.2181  -30.3039 C   0  0  0  0  0  0  0  0  0  0  0  0
   -3.7945  -31.5669  -32.5300 C   0  0  0  0  0  0  0  0  0  0  0  0
   -5.8036  -31.7544  -30.5429 C   0  0  0  0  0  0  0  0  0  0  0  0
  -10.5011  -27.4827  -36.8299 C   0  0  0  0  0  0  0  0  0  0  0  0
  -15.8421  -23.0128  -38.1194 C   0  0  0  0  0  0  0  0  0  0  0  0
   -9.4902  -28.1381  -36.1271 C   0  0  0  0  0  0  0  0  0  0  0  0
  -17.1618  -22.5613  -38.1088 C   0  0  0  0  0  0  0  0  0  0  0  0
   -9.7067  -26.5414  -34.3268 C   0  0  0  0  0  0  0  0  0  0  0  0
  -16.5463  -25.0948  -37.1162 C   0  0  0  0  0  0  0  0  0  0  0  0
  -10.7175  -25.8859  -35.0298 C   0  0  0  0  0  0  0  0  0  0  0  0
   -5.0944  -31.0961  -32.7872 C   0  0  0  0  0  0  0  0  0  0  0  0
   -6.0754  -31.1942  -31.7996 C   0  0  0  0  0  0  0  0  0  0  0  0
  -15.5342  -24.2795  -37.6231 C   0  0  0  0  0  0  0  0  0  0  0  0
  -11.1147  -26.3565  -36.2813 C   0  0  0  0  0  0  0  0  0  0  0  0
   -9.0929  -27.6676  -34.8755 C   0  0  0  0  0  0  0  0  0  0  0  0
  -18.1737  -23.3766  -37.6018 C   0  0  0  0  0  0  0  0  0  0  0  0
  -17.8660  -24.6433  -37.1055 C   0  0  0  0  0  0  0  0  0  0  0  0
   -6.8526  -30.2624  -33.6482 C   0  0  0  0  0  0  0  0  0  0  0  0
   -8.4787  -30.5118  -31.7835 C   0  0  0  0  0  0  0  0  0  0  0  0
  -13.4423  -25.3928  -36.6702 C   0  0  0  0  0  0  0  0  0  0  0  0
  -11.3568  -24.6820  -34.4175 C   0  0  0  0  0  0  0  0  0  0  0  0
  -11.5517  -29.4561  -33.4638 C   0  0  0  0  0  0  0  0  0  0  0  0
  -10.9796  -31.6365  -32.3555 C   0  0  0  0  0  0  0  0  0  0  0  0
  -11.0316  -29.5214  -31.0021 C   0  0  0  0  0  0  0  0  0  0  0  0
   -7.7680  -29.6263  -34.6235 C   0  0  0  0  0  0  0  0  0  0  0  0
  -10.7256  -30.1306  -32.3695 C   0  0  0  0  0  0  0  0  0  0  0  0
   -5.5952  -30.5176  -33.9221 N   0  0  0  0  0  0  0  0  0  0  0  0
   -7.2169  -30.6469  -32.3733 N   0  0  0  0  0  0  0  0  0  0  0  0
  -14.1932  -24.7382  -37.6346 N   0  0  0  0  0  0  0  0  0  0  0  0
  -12.1238  -25.7126  -37.0017 N   0  0  0  0  0  0  0  0  0  0  0  0
   -8.6909  -30.8888  -30.6429 O   0  0  0  0  0  0  0  0  0  0  0  0
   -8.1015  -28.3111  -34.1857 O   0  0  0  0  0  0  0  0  0  0  0  0
   -9.3386  -29.9302  -32.6575 O   0  0  0  0  0  0  0  0  0  0  0  0
  -14.2510  -25.8511  -35.2644 S   0  0  0  0  0  0  0  0  0  0  0  0
  -19.7883  -22.7591  -37.6134 Cl  0  0  0  0  0  0  0  0  0  0  0  0
  -19.0752  -25.6985  -36.4626 Cl  0  0  0  0  0  0  0  0  0  0  0  0
   -2.5147  -32.4944  -31.0688 H   0  0  0  0  0  0  0  0  0  0  0  0
   -4.2660  -32.6578  -29.3387 H   0  0  0  0  0  0  0  0  0  0  0  0
   -3.0181  -31.4993  -33.2859 H   0  0  0  0  0  0  0  0  0  0  0  0
   -6.5556  -31.8372  -29.7671 H   0  0  0  0  0  0  0  0  0  0  0  0
  -10.8015  -27.8580  -37.8052 H   0  0  0  0  0  0  0  0  0  0  0  0
  -15.0613  -22.3702  -38.5182 H   0  0  0  0  0  0  0  0  0  0  0  0
   -9.0164  -29.0151  -36.5596 H   0  0  0  0  0  0  0  0  0  0  0  0
  -17.3835  -21.5719  -38.5011 H   0  0  0  0  0  0  0  0  0  0  0  0
   -9.3945  -26.1768  -33.3511 H   0  0  0  0  0  0  0  0  0  0  0  0
  -16.2997  -26.0815  -36.7291 H   0  0  0  0  0  0  0  0  0  0  0  0
  -12.1784  -24.9834  -33.7579 H   0  0  0  0  0  0  0  0  0  0  0  0
  -10.6317  -24.1038  -33.8322 H   0  0  0  0  0  0  0  0  0  0  0  0
  -11.7543  -24.0103  -35.1880 H   0  0  0  0  0  0  0  0  0  0  0  0
  -11.2219  -29.7808  -34.4570 H   0  0  0  0  0  0  0  0  0  0  0  0
  -12.6182  -29.6813  -33.3607 H   0  0  0  0  0  0  0  0  0  0  0  0
  -11.4235  -28.3679  -33.4359 H   0  0  0  0  0  0  0  0  0  0  0  0
  -10.6997  -32.0883  -33.3140 H   0  0  0  0  0  0  0  0  0  0  0  0
  -12.0447  -31.8513  -32.2123 H   0  0  0  0  0  0  0  0  0  0  0  0
  -10.4155  -32.1339  -31.5599 H   0  0  0  0  0  0  0  0  0  0  0  0
  -12.0551  -29.1305  -30.9683 H   0  0  0  0  0  0  0  0  0  0  0  0
  -10.9155  -30.2558  -30.1984 H   0  0  0  0  0  0  0  0  0  0  0  0
  -10.3695  -28.6726  -30.7966 H   0  0  0  0  0  0  0  0  0  0  0  0
   -7.3132  -29.5501  -35.6249 H   0  0  0  0  0  0  0  0  0  0  0  0
   -8.7023  -30.1998  -34.7387 H   0  0  0  0  0  0  0  0  0  0  0  0
  -13.7055  -24.5865  -38.5151 H   0  0  0  0  0  0  0  0  0  0  0  0
  -11.8974  -25.5184  -37.9827 H   0  0  0  0  0  0  0  0  0  0  0  0
  1  2  2  0  0  0  0
  1  3  1  0  0  0  0
  2  4  1  0  0  0  0
  3 12  2  0  0  0  0
  4 13  2  0  0  0  0
  5  7  1  0  0  0  0
  5 15  2  0  0  0  0
  6  8  1  0  0  0  0
  6 14  2  0  0  0  0
  7 16  2  0  0  0  0
  8 17  2  0  0  0  0
  9 11  2  0  0  0  0
  9 16  1  0  0  0  0
 10 14  1  0  0  0  0
 10 18  2  0  0  0  0
 11 15  1  0  0  0  0
 11 22  1  0  0  0  0
 12 13  1  0  0  0  0
 12 28  1  0  0  0  0
 13 29  1  0  0  0  0
 14 30  1  0  0  0  0
 15 31  1  0  0  0  0
 16 33  1  0  0  0  0
 17 18  1  0  0  0  0
 17 36  1  0  0  0  0
 18 37  1  0  0  0  0
 19 26  1  0  0  0  0
 19 28  2  0  0  0  0
 19 29  1  0  0  0  0
 20 29  1  0  0  0  0
 20 32  2  0  0  0  0
 20 34  1  0  0  0  0
 21 30  1  0  0  0  0
 21 31  1  0  0  0  0
 21 35  2  0  0  0  0
 23 27  1  0  0  0  0
 24 27  1  0  0  0  0
 25 27  1  0  0  0  0
 26 33  1  0  0  0  0
 27 34  1  0  0  0  0
  1 38  1  0  0  0  0
  2 39  1  0  0  0  0
  3 40  1  0  0  0  0
  4 41  1  0  0  0  0
  5 42  1  0  0  0  0
  6 43  1  0  0  0  0
  7 44  1  0  0  0  0
  8 45  1  0  0  0  0
  9 46  1  0  0  0  0
 10 47  1  0  0  0  0
 22 48  1  0  0  0  0
 22 49  1  0  0  0  0
 22 50  1  0  0  0  0
 23 51  1  0  0  0  0
 23 52  1  0  0  0  0
 23 53  1  0  0  0  0
 24 54  1  0  0  0  0
 24 55  1  0  0  0  0
 24 56  1  0  0  0  0
 25 57  1  0  0  0  0
 25 58  1  0  0  0  0
 25 59  1  0  0  0  0
 26 60  1  0  0  0  0
 26 61  1  0  0  0  0
 30 62  1  0  0  0  0
 31 63  1  0  0  0  0
M  END
> <Name>
EZ_15

> <SourceTag>
EZ_15

> <Activity_FLAP>
100

> <Activity_sEH>
100000

> <Gold.Version>
5.2

> <Gold.Id.Protein>
6HGV|6HGV_protein|mol2

> <Gold.Goldscore.Fitness>
89.9103

> <Gold.Goldscore.Internal.Vdw>
-12.1157

> <Gold.Goldscore.Internal.Torsion>
-11.6688

> <Gold.Goldscore.External.Vdw>
66.3577

> <Gold.Goldscore.Internal.HBond>
0.0000

> <Gold.Goldscore.External.HBond>
2.1284

> <Gold.Goldscore.Internal.Correction>
-20.3245

> <Gold.Goldscore.Hbonds>
donor molecule, donor type, donor heavy atom, donor atom, acceptor molecule, acceptor atom, score
      L1  H    30    62       P1  1931  0.90
      L1  H    31    63       P1  1931  0.16

> <Gold.Goldscore.Internal.Vdw.Weighted>
-12.1157

> <Gold.Goldscore.Internal.Torsion.Weighted>
-11.6688

> <Gold.Goldscore.External.Vdw.Weighted>
91.2419

> <Gold.Goldscore.Internal.HBond.Weighted>
0.0000

> <Gold.Goldscore.External.HBond.Weighted>
2.1284

> <Gold.Goldscore.Internal.Correction.Weighted>
-20.3245

> <Gold.Protein.RotatedTorsions>
[ 3781 1176 1175 1172 ] final  -55.08 input   60.00 | X-H torsion
[ 3847 1247 1246 1244 ] final  162.21 input   60.00 | X-H torsion
[ 4507 1931 1930 1928 ] final -129.45 input   60.00 | X-H torsion
[ 3677 1070 1069 1066 ] final -140.69 input   60.00 | X-H torsion
[ 3525  925  924  922 ] final    3.88 input   59.99 | X-H torsion
[ 4531 1957 1955 1953 ] final   12.98 input   60.00 | X-H torsion

> <Gold.Protein.ActiveResidues>
 PHE267  PRO268  MET310  ASP335  TRP336  MET339  TYR343  THR360  PRO361  ILE363 
 PRO371  SER374  ILE375  ASN378  PHE381  TYR383  GLN384  PHE387  LEU408  LEU417 
 MET419  LEU428  TYR466  MET469  ASN472  ASP496  VAL498  LEU499  MET503  HIS524 
 TRP525 

> <Gold.Protein.RotatedAtoms>
   -3.5604  -29.5573  -30.5261 H   0  0  0  0  0  0  0  0  0  0  0  0  # atno 3525 bound_to 925 
  -11.2438  -23.3267  -31.4150 H   0  0  0  0  0  0  0  0  0  0  0  0  # atno 3677 bound_to 1070
  -10.2973  -36.7217  -34.1504 H   0  0  0  0  0  0  0  0  0  0  0  0  # atno 3781 bound_to 1176
  -14.4772  -27.6593  -37.9437 H   0  0  0  0  0  0  0  0  0  0  0  0  # atno 3847 bound_to 1247
  -13.4061  -24.3614  -40.4806 H   0  0  0  0  0  0  0  0  0  0  0  0  # atno 4507 bound_to 1931
   -2.9792  -32.6722  -36.6687 H   0  0  0  0  0  0  0  0  0  0  0  0  # atno 4531 bound_to 1957
   -9.2519  -36.4794  -32.9272 LP  0  0  0  0  0  0  0  0  0  0  0  0  # atno 5205 bound_to 1176
  -10.5597  -37.4330  -32.7105 LP  0  0  0  0  0  0  0  0  0  0  0  0  # atno 5206 bound_to 1176
  -15.0959  -28.9666  -37.1980 LP  0  0  0  0  0  0  0  0  0  0  0  0  # atno 5215 bound_to 1247
  -15.9963  -27.6142  -37.3620 LP  0  0  0  0  0  0  0  0  0  0  0  0  # atno 5216 bound_to 1247
  -12.4294  -24.0153  -39.2258 LP  0  0  0  0  0  0  0  0  0  0  0  0  # atno 5217 bound_to 1931
  -13.3569  -25.3590  -39.1959 LP  0  0  0  0  0  0  0  0  0  0  0  0  # atno 5218 bound_to 1931
  -11.8791  -22.1791  -30.4520 LP  0  0  0  0  0  0  0  0  0  0  0  0  # atno 5224 bound_to 1070
  -12.7362  -23.5255  -30.7974 LP  0  0  0  0  0  0  0  0  0  0  0  0  # atno 5225 bound_to 1070

$$$$
EZ_15|Lisa_paper2_min|sdf|3|dock4
  -GOLD-  10182016523D 1   1.00000     0.00000

 63 66  0  0  0  0  0  0  0  0  1 V2000
   -3.3000  -31.9645  -31.3307 C   0  0  0  0  0  0  0  0  0  0  0  0
   -4.2792  -32.1238  -30.3524 C   0  0  0  0  0  0  0  0  0  0  0  0
   -3.6139  -31.3974  -32.5693 C   0  0  0  0  0  0  0  0  0  0  0  0
   -5.6008  -31.7230  -30.5776 C   0  0  0  0  0  0  0  0  0  0  0  0
  -10.5413  -27.4951  -36.7142 C   0  0  0  0  0  0  0  0  0  0  0  0
  -16.5738  -24.9737  -36.2202 C   0  0  0  0  0  0  0  0  0  0  0  0
   -9.4595  -28.1214  -36.0953 C   0  0  0  0  0  0  0  0  0  0  0  0
  -17.9608  -24.8339  -36.2656 C   0  0  0  0  0  0  0  0  0  0  0  0
   -9.5940  -26.5472  -34.2674 C   0  0  0  0  0  0  0  0  0  0  0  0
  -16.4792  -24.8186  -38.6294 C   0  0  0  0  0  0  0  0  0  0  0  0
  -10.6757  -25.9208  -34.8865 C   0  0  0  0  0  0  0  0  0  0  0  0
   -4.9374  -30.9892  -32.8125 C   0  0  0  0  0  0  0  0  0  0  0  0
   -5.9071  -31.1551  -31.8228 C   0  0  0  0  0  0  0  0  0  0  0  0
  -15.8329  -24.9662  -37.4021 C   0  0  0  0  0  0  0  0  0  0  0  0
  -11.1493  -26.3948  -36.1098 C   0  0  0  0  0  0  0  0  0  0  0  0
   -8.9858  -27.6475  -34.8719 C   0  0  0  0  0  0  0  0  0  0  0  0
  -18.6071  -24.6864  -37.4930 C   0  0  0  0  0  0  0  0  0  0  0  0
  -17.8663  -24.6787  -38.6749 C   0  0  0  0  0  0  0  0  0  0  0  0
   -6.7402  -30.2313  -33.6510 C   0  0  0  0  0  0  0  0  0  0  0  0
   -8.3421  -30.5969  -31.7845 C   0  0  0  0  0  0  0  0  0  0  0  0
  -13.6071  -25.8639  -36.5282 C   0  0  0  0  0  0  0  0  0  0  0  0
  -11.3072  -24.7443  -34.2158 C   0  0  0  0  0  0  0  0  0  0  0  0
  -10.7784  -29.4782  -30.8922 C   0  0  0  0  0  0  0  0  0  0  0  0
  -11.4479  -29.4521  -33.3131 C   0  0  0  0  0  0  0  0  0  0  0  0
  -10.9706  -31.6375  -32.1710 C   0  0  0  0  0  0  0  0  0  0  0  0
   -7.6918  -29.6257  -34.6109 C   0  0  0  0  0  0  0  0  0  0  0  0
  -10.6059  -30.1558  -32.2508 C   0  0  0  0  0  0  0  0  0  0  0  0
   -5.4729  -30.4169  -33.9347 N   0  0  0  0  0  0  0  0  0  0  0  0
   -7.0780  -30.6568  -32.3818 N   0  0  0  0  0  0  0  0  0  0  0  0
  -14.4234  -25.1077  -37.3554 N   0  0  0  0  0  0  0  0  0  0  0  0
  -12.2303  -25.7798  -36.7465 N   0  0  0  0  0  0  0  0  0  0  0  0
   -8.5290  -31.0047  -30.6500 O   0  0  0  0  0  0  0  0  0  0  0  0
   -7.9249  -28.2624  -34.2644 O   0  0  0  0  0  0  0  0  0  0  0  0
   -9.2350  -30.0446  -32.6443 O   0  0  0  0  0  0  0  0  0  0  0  0
  -14.3791  -26.9037  -35.4496 S   0  0  0  0  0  0  0  0  0  0  0  0
  -20.3278  -24.5205  -37.4833 Cl  0  0  0  0  0  0  0  0  0  0  0  0
  -18.6096  -24.5017  -40.2257 Cl  0  0  0  0  0  0  0  0  0  0  0  0
   -2.2810  -32.2842  -31.1303 H   0  0  0  0  0  0  0  0  0  0  0  0
   -4.0130  -32.5678  -29.3963 H   0  0  0  0  0  0  0  0  0  0  0  0
   -2.8458  -31.2767  -33.3269 H   0  0  0  0  0  0  0  0  0  0  0  0
   -6.3436  -31.8580  -29.8003 H   0  0  0  0  0  0  0  0  0  0  0  0
  -10.9010  -27.8727  -37.6683 H   0  0  0  0  0  0  0  0  0  0  0  0
  -16.0799  -25.0865  -35.2585 H   0  0  0  0  0  0  0  0  0  0  0  0
   -8.9904  -28.9784  -36.5710 H   0  0  0  0  0  0  0  0  0  0  0  0
  -18.5220  -24.8405  -35.3346 H   0  0  0  0  0  0  0  0  0  0  0  0
   -9.2222  -26.1799  -33.3139 H   0  0  0  0  0  0  0  0  0  0  0  0
  -15.8960  -24.8147  -39.5481 H   0  0  0  0  0  0  0  0  0  0  0  0
  -12.2295  -25.0476  -33.7075 H   0  0  0  0  0  0  0  0  0  0  0  0
  -10.6299  -24.2996  -33.4769 H   0  0  0  0  0  0  0  0  0  0  0  0
  -11.5494  -23.9583  -34.9415 H   0  0  0  0  0  0  0  0  0  0  0  0
  -10.4891  -30.1545  -30.0800 H   0  0  0  0  0  0  0  0  0  0  0  0
  -10.1765  -28.5667  -30.8167 H   0  0  0  0  0  0  0  0  0  0  0  0
  -11.8279  -29.2155  -30.7166 H   0  0  0  0  0  0  0  0  0  0  0  0
  -11.2719  -28.3704  -33.2969 H   0  0  0  0  0  0  0  0  0  0  0  0
  -12.5174  -29.5938  -33.1203 H   0  0  0  0  0  0  0  0  0  0  0  0
  -11.2243  -29.8247  -34.3180 H   0  0  0  0  0  0  0  0  0  0  0  0
  -12.0392  -31.7666  -31.9639 H   0  0  0  0  0  0  0  0  0  0  0  0
  -10.7332  -32.1619  -33.1023 H   0  0  0  0  0  0  0  0  0  0  0  0
  -10.4351  -32.1269  -31.3494 H   0  0  0  0  0  0  0  0  0  0  0  0
   -7.3091  -29.6569  -35.6443 H   0  0  0  0  0  0  0  0  0  0  0  0
   -8.6600  -30.1526  -34.6117 H   0  0  0  0  0  0  0  0  0  0  0  0
  -13.9254  -24.5855  -38.0734 H   0  0  0  0  0  0  0  0  0  0  0  0
  -11.9881  -25.2407  -37.5845 H   0  0  0  0  0  0  0  0  0  0  0  0
  1  2  2  0  0  0  0
  1  3  1  0  0  0  0
  2  4  1  0  0  0  0
  3 12  2  0  0  0  0
  4 13  2  0  0  0  0
  5  7  1  0  0  0  0
  5 15  2  0  0  0  0
  6  8  1  0  0  0  0
  6 14  2  0  0  0  0
  7 16  2  0  0  0  0
  8 17  2  0  0  0  0
  9 11  2  0  0  0  0
  9 16  1  0  0  0  0
 10 14  1  0  0  0  0
 10 18  2  0  0  0  0
 11 15  1  0  0  0  0
 11 22  1  0  0  0  0
 12 13  1  0  0  0  0
 12 28  1  0  0  0  0
 13 29  1  0  0  0  0
 14 30  1  0  0  0  0
 15 31  1  0  0  0  0
 16 33  1  0  0  0  0
 17 18  1  0  0  0  0
 17 36  1  0  0  0  0
 18 37  1  0  0  0  0
 19 26  1  0  0  0  0
 19 28  2  0  0  0  0
 19 29  1  0  0  0  0
 20 29  1  0  0  0  0
 20 32  2  0  0  0  0
 20 34  1  0  0  0  0
 21 30  1  0  0  0  0
 21 31  1  0  0  0  0
 21 35  2  0  0  0  0
 23 27  1  0  0  0  0
 24 27  1  0  0  0  0
 25 27  1  0  0  0  0
 26 33  1  0  0  0  0
 27 34  1  0  0  0  0
  1 38  1  0  0  0  0
  2 39  1  0  0  0  0
  3 40  1  0  0  0  0
  4 41  1  0  0  0  0
  5 42  1  0  0  0  0
  6 43  1  0  0  0  0
  7 44  1  0  0  0  0
  8 45  1  0  0  0  0
  9 46  1  0  0  0  0
 10 47  1  0  0  0  0
 22 48  1  0  0  0  0
 22 49  1  0  0  0  0
 22 50  1  0  0  0  0
 23 51  1  0  0  0  0
 23 52  1  0  0  0  0
 23 53  1  0  0  0  0
 24 54  1  0  0  0  0
 24 55  1  0  0  0  0
 24 56  1  0  0  0  0
 25 57  1  0  0  0  0
 25 58  1  0  0  0  0
 25 59  1  0  0  0  0
 26 60  1  0  0  0  0
 26 61  1  0  0  0  0
 30 62  1  0  0  0  0
 31 63  1  0  0  0  0
M  END
> <Name>
EZ_15

> <SourceTag>
EZ_15

> <Activity_FLAP>
100

> <Activity_sEH>
100000

> <Gold.Version>
5.2

> <Gold.Id.Protein>
6HGV|6HGV_protein|mol2

> <Gold.Goldscore.Fitness>
89.4550

> <Gold.Goldscore.Internal.Vdw>
-13.6630

> <Gold.Goldscore.Internal.Torsion>
-11.3547

> <Gold.Goldscore.External.Vdw>
67.9153

> <Gold.Goldscore.Internal.HBond>
0.0000

> <Gold.Goldscore.External.HBond>
0.7647

> <Gold.Goldscore.Internal.Correction>
-20.3245

> <Gold.Goldscore.Hbonds>
donor molecule, donor type, donor heavy atom, donor atom, acceptor molecule, acceptor atom, score
      L1  H    30    62       P1  1931  0.28
      L1  H    31    63       P1  1931  0.10

> <Gold.Goldscore.Internal.Vdw.Weighted>
-13.6630

> <Gold.Goldscore.Internal.Torsion.Weighted>
-11.3547

> <Gold.Goldscore.External.Vdw.Weighted>
93.3836

> <Gold.Goldscore.Internal.HBond.Weighted>
0.0000

> <Gold.Goldscore.External.HBond.Weighted>
0.7647

> <Gold.Goldscore.Internal.Correction.Weighted>
-20.3245

> <Gold.Protein.RotatedTorsions>
[ 3781 1176 1175 1172 ] final  -41.42 input   60.00 | X-H torsion
[ 3847 1247 1246 1244 ] final   89.26 input   60.00 | X-H torsion
[ 4507 1931 1930 1928 ] final -125.51 input   60.00 | X-H torsion
[ 3677 1070 1069 1066 ] final -153.08 input   60.00 | X-H torsion
[ 3525  925  924  922 ] final  -61.73 input   59.99 | X-H torsion
[ 4531 1957 1955 1953 ] final  -14.74 input   60.00 | X-H torsion

> <Gold.Protein.ActiveResidues>
 PHE267  PRO268  MET310  ASP335  TRP336  MET339  TYR343  THR360  PRO361  ILE363 
 PRO371  SER374  ILE375  ASN378  PHE381  TYR383  GLN384  PHE387  LEU408  LEU417 
 MET419  LEU428  TYR466  MET469  ASN472  ASP496  VAL498  LEU499  MET503  HIS524 
 TRP525 

> <Gold.Protein.RotatedAtoms>
   -3.6954  -29.5904  -29.5211 H   0  0  0  0  0  0  0  0  0  0  0  0  # atno 3525 bound_to 925 
  -11.1548  -23.1537  -31.3602 H   0  0  0  0  0  0  0  0  0  0  0  0  # atno 3677 bound_to 1070
  -10.4670  -36.8553  -34.0961 H   0  0  0  0  0  0  0  0  0  0  0  0  # atno 3781 bound_to 1176
  -14.4866  -28.6976  -37.5428 H   0  0  0  0  0  0  0  0  0  0  0  0  # atno 3847 bound_to 1247
  -13.4417  -24.4148  -40.4774 H   0  0  0  0  0  0  0  0  0  0  0  0  # atno 4507 bound_to 1931
   -2.6764  -32.3454  -36.7207 H   0  0  0  0  0  0  0  0  0  0  0  0  # atno 4531 bound_to 1957
   -9.2388  -36.3933  -33.1337 LP  0  0  0  0  0  0  0  0  0  0  0  0  # atno 5205 bound_to 1176
  -10.4019  -37.3847  -32.5587 LP  0  0  0  0  0  0  0  0  0  0  0  0  # atno 5206 bound_to 1176
  -16.0026  -28.3163  -37.0909 LP  0  0  0  0  0  0  0  0  0  0  0  0  # atno 5215 bound_to 1247
  -15.0801  -27.2189  -37.8728 LP  0  0  0  0  0  0  0  0  0  0  0  0  # atno 5216 bound_to 1247
  -12.4331  -23.9769  -39.2779 LP  0  0  0  0  0  0  0  0  0  0  0  0  # atno 5217 bound_to 1931
  -13.3173  -25.3435  -39.1470 LP  0  0  0  0  0  0  0  0  0  0  0  0  # atno 5218 bound_to 1931
  -12.0662  -22.2229  -30.3850 LP  0  0  0  0  0  0  0  0  0  0  0  0  # atno 5224 bound_to 1070
  -12.6386  -23.6558  -30.9196 LP  0  0  0  0  0  0  0  0  0  0  0  0  # atno 5225 bound_to 1070

$$$$
EZ_15|Lisa_paper2_min|sdf|3|dock7
  -GOLD-  10182016533D 1   1.00000     0.00000

 63 66  0  0  0  0  0  0  0  0  1 V2000
   -3.2314  -32.0879  -32.0855 C   0  0  0  0  0  0  0  0  0  0  0  0
   -4.2166  -32.4980  -31.1897 C   0  0  0  0  0  0  0  0  0  0  0  0
   -3.5634  -31.3381  -33.2177 C   0  0  0  0  0  0  0  0  0  0  0  0
   -5.5624  -32.1736  -31.3939 C   0  0  0  0  0  0  0  0  0  0  0  0
  -10.8435  -27.3599  -36.6556 C   0  0  0  0  0  0  0  0  0  0  0  0
  -16.8462  -25.1789  -35.4512 C   0  0  0  0  0  0  0  0  0  0  0  0
   -9.6867  -28.0111  -36.2273 C   0  0  0  0  0  0  0  0  0  0  0  0
  -18.2394  -25.1409  -35.3969 C   0  0  0  0  0  0  0  0  0  0  0  0
   -9.5396  -26.5090  -34.3407 C   0  0  0  0  0  0  0  0  0  0  0  0
  -16.9281  -24.7820  -37.8329 C   0  0  0  0  0  0  0  0  0  0  0  0
  -10.6963  -25.8576  -34.7691 C   0  0  0  0  0  0  0  0  0  0  0  0
   -4.9112  -31.0035  -33.4383 C   0  0  0  0  0  0  0  0  0  0  0  0
   -5.8867  -31.4212  -32.5321 C   0  0  0  0  0  0  0  0  0  0  0  0
  -16.1904  -24.9995  -36.6692 C   0  0  0  0  0  0  0  0  0  0  0  0
  -11.3482  -26.2831  -35.9265 C   0  0  0  0  0  0  0  0  0  0  0  0
   -9.0348  -27.5857  -35.0699 C   0  0  0  0  0  0  0  0  0  0  0  0
  -18.9770  -24.9234  -36.5607 C   0  0  0  0  0  0  0  0  0  0  0  0
  -18.3214  -24.7440  -37.7787 C   0  0  0  0  0  0  0  0  0  0  0  0
   -6.7525  -30.2597  -34.2027 C   0  0  0  0  0  0  0  0  0  0  0  0
   -8.3615  -31.0806  -32.4937 C   0  0  0  0  0  0  0  0  0  0  0  0
  -13.8578  -25.8738  -36.1052 C   0  0  0  0  0  0  0  0  0  0  0  0
  -11.2138  -24.7071  -33.9683 C   0  0  0  0  0  0  0  0  0  0  0  0
   -9.2268  -33.4327  -29.8505 C   0  0  0  0  0  0  0  0  0  0  0  0
  -10.3812  -31.2543  -30.3315 C   0  0  0  0  0  0  0  0  0  0  0  0
  -10.2195  -33.0063  -32.1237 C   0  0  0  0  0  0  0  0  0  0  0  0
   -7.7297  -29.5738  -35.0793 C   0  0  0  0  0  0  0  0  0  0  0  0
   -9.5276  -32.3783  -30.9147 C   0  0  0  0  0  0  0  0  0  0  0  0
   -5.4671  -30.2873  -34.4638 N   0  0  0  0  0  0  0  0  0  0  0  0
   -7.0827  -30.9296  -33.0416 N   0  0  0  0  0  0  0  0  0  0  0  0
  -14.7746  -25.0375  -36.7238 N   0  0  0  0  0  0  0  0  0  0  0  0
  -12.5067  -25.6425  -36.3729 N   0  0  0  0  0  0  0  0  0  0  0  0
   -9.3450  -30.6016  -33.0337 O   0  0  0  0  0  0  0  0  0  0  0  0
   -7.9002  -28.2252  -34.6493 O   0  0  0  0  0  0  0  0  0  0  0  0
   -8.2916  -31.8013  -31.3460 O   0  0  0  0  0  0  0  0  0  0  0  0
  -14.4870  -27.1590  -35.2149 S   0  0  0  0  0  0  0  0  0  0  0  0
  -20.7003  -24.8903  -36.4286 Cl  0  0  0  0  0  0  0  0  0  0  0  0
  -19.1798  -24.4729  -39.2547 Cl  0  0  0  0  0  0  0  0  0  0  0  0
   -2.1935  -32.3533  -31.9037 H   0  0  0  0  0  0  0  0  0  0  0  0
   -3.9360  -33.0810  -30.3159 H   0  0  0  0  0  0  0  0  0  0  0  0
   -2.7904  -31.0224  -33.9116 H   0  0  0  0  0  0  0  0  0  0  0  0
   -6.3094  -32.5048  -30.6822 H   0  0  0  0  0  0  0  0  0  0  0  0
  -11.3424  -27.6997  -37.5599 H   0  0  0  0  0  0  0  0  0  0  0  0
  -16.2809  -25.3475  -34.5382 H   0  0  0  0  0  0  0  0  0  0  0  0
   -9.2988  -28.8496  -36.7993 H   0  0  0  0  0  0  0  0  0  0  0  0
  -18.7336  -25.2812  -34.4388 H   0  0  0  0  0  0  0  0  0  0  0  0
   -9.0288  -26.1794  -33.4391 H   0  0  0  0  0  0  0  0  0  0  0  0
  -16.4109  -24.6440  -38.7804 H   0  0  0  0  0  0  0  0  0  0  0  0
  -12.0367  -25.0344  -33.3228 H   0  0  0  0  0  0  0  0  0  0  0  0
  -10.4253  -24.2763  -33.3396 H   0  0  0  0  0  0  0  0  0  0  0  0
  -11.5781  -23.9037  -34.6200 H   0  0  0  0  0  0  0  0  0  0  0  0
   -8.6043  -34.2351  -30.2620 H   0  0  0  0  0  0  0  0  0  0  0  0
   -8.7102  -32.9993  -28.9879 H   0  0  0  0  0  0  0  0  0  0  0  0
  -10.1500  -33.9074  -29.4985 H   0  0  0  0  0  0  0  0  0  0  0  0
   -9.8681  -30.7696  -29.4930 H   0  0  0  0  0  0  0  0  0  0  0  0
  -11.3232  -31.6468  -29.9316 H   0  0  0  0  0  0  0  0  0  0  0  0
  -10.6141  -30.4925  -31.0825 H   0  0  0  0  0  0  0  0  0  0  0  0
   -9.4840  -33.4015  -32.8337 H   0  0  0  0  0  0  0  0  0  0  0  0
  -10.8869  -33.8222  -31.8276 H   0  0  0  0  0  0  0  0  0  0  0  0
  -10.8053  -32.2581  -32.6697 H   0  0  0  0  0  0  0  0  0  0  0  0
   -7.3997  -29.5600  -36.1310 H   0  0  0  0  0  0  0  0  0  0  0  0
   -8.7136  -30.0703  -35.0587 H   0  0  0  0  0  0  0  0  0  0  0  0
  -14.3603  -24.3495  -37.3491 H   0  0  0  0  0  0  0  0  0  0  0  0
  -12.3561  -24.9345  -37.0993 H   0  0  0  0  0  0  0  0  0  0  0  0
  1  2  2  0  0  0  0
  1  3  1  0  0  0  0
  2  4  1  0  0  0  0
  3 12  2  0  0  0  0
  4 13  2  0  0  0  0
  5  7  1  0  0  0  0
  5 15  2  0  0  0  0
  6  8  1  0  0  0  0
  6 14  2  0  0  0  0
  7 16  2  0  0  0  0
  8 17  2  0  0  0  0
  9 11  2  0  0  0  0
  9 16  1  0  0  0  0
 10 14  1  0  0  0  0
 10 18  2  0  0  0  0
 11 15  1  0  0  0  0
 11 22  1  0  0  0  0
 12 13  1  0  0  0  0
 12 28  1  0  0  0  0
 13 29  1  0  0  0  0
 14 30  1  0  0  0  0
 15 31  1  0  0  0  0
 16 33  1  0  0  0  0
 17 18  1  0  0  0  0
 17 36  1  0  0  0  0
 18 37  1  0  0  0  0
 19 26  1  0  0  0  0
 19 28  2  0  0  0  0
 19 29  1  0  0  0  0
 20 29  1  0  0  0  0
 20 32  2  0  0  0  0
 20 34  1  0  0  0  0
 21 30  1  0  0  0  0
 21 31  1  0  0  0  0
 21 35  2  0  0  0  0
 23 27  1  0  0  0  0
 24 27  1  0  0  0  0
 25 27  1  0  0  0  0
 26 33  1  0  0  0  0
 27 34  1  0  0  0  0
  1 38  1  0  0  0  0
  2 39  1  0  0  0  0
  3 40  1  0  0  0  0
  4 41  1  0  0  0  0
  5 42  1  0  0  0  0
  6 43  1  0  0  0  0
  7 44  1  0  0  0  0
  8 45  1  0  0  0  0
  9 46  1  0  0  0  0
 10 47  1  0  0  0  0
 22 48  1  0  0  0  0
 22 49  1  0  0  0  0
 22 50  1  0  0  0  0
 23 51  1  0  0  0  0
 23 52  1  0  0  0  0
 23 53  1  0  0  0  0
 24 54  1  0  0  0  0
 24 55  1  0  0  0  0
 24 56  1  0  0  0  0
 25 57  1  0  0  0  0
 25 58  1  0  0  0  0
 25 59  1  0  0  0  0
 26 60  1  0  0  0  0
 26 61  1  0  0  0  0
 30 62  1  0  0  0  0
 31 63  1  0  0  0  0
M  END
> <Name>
EZ_15

> <SourceTag>
EZ_15

> <Activity_FLAP>
100

> <Activity_sEH>
100000

> <Gold.Version>
5.2

> <Gold.Id.Protein>
6HGV|6HGV_protein|mol2

> <Gold.Goldscore.Fitness>
85.1691

> <Gold.Goldscore.Internal.Vdw>
-11.5058

> <Gold.Goldscore.Internal.Torsion>
-14.2546

> <Gold.Goldscore.External.Vdw>
65.8946

> <Gold.Goldscore.Internal.HBond>
0.0000

> <Gold.Goldscore.External.HBond>
0.0000

> <Gold.Goldscore.Internal.Correction>
-20.3245

> <Gold.Goldscore.Internal.Vdw.Weighted>
-11.5058

> <Gold.Goldscore.Internal.Torsion.Weighted>
-14.2546

> <Gold.Goldscore.External.Vdw.Weighted>
90.6051

> <Gold.Goldscore.Internal.HBond.Weighted>
0.0000

> <Gold.Goldscore.External.HBond.Weighted>
0.0000

> <Gold.Goldscore.Internal.Correction.Weighted>
-20.3245

> <Gold.Protein.RotatedTorsions>
[ 3781 1176 1175 1172 ] final -148.15 input   60.00 | X-H torsion
[ 3847 1247 1246 1244 ] final  153.76 input   60.00 | X-H torsion
[ 4507 1931 1930 1928 ] final  -39.44 input   60.00 | X-H torsion
[ 3677 1070 1069 1066 ] final  -41.48 input   60.00 | X-H torsion
[ 3525  925  924  922 ] final   18.99 input   59.99 | X-H torsion
[ 4531 1957 1955 1953 ] final   18.32 input   60.00 | X-H torsion

> <Gold.Protein.ActiveResidues>
 PHE267  PRO268  MET310  ASP335  TRP336  MET339  TYR343  THR360  PRO361  ILE363 
 PRO371  SER374  ILE375  ASN378  PHE381  TYR383  GLN384  PHE387  LEU408  LEU417 
 MET419  LEU428  TYR466  MET469  ASN472  ASP496  VAL498  LEU499  MET503  HIS524 
 TRP525 

> <Gold.Protein.RotatedAtoms>
   -3.3908  -29.6158  -30.6945 H   0  0  0  0  0  0  0  0  0  0  0  0  # atno 3525 bound_to 925 
  -12.5489  -23.7235  -30.9993 H   0  0  0  0  0  0  0  0  0  0  0  0  # atno 3677 bound_to 1070
   -9.2734  -36.3414  -33.3419 H   0  0  0  0  0  0  0  0  0  0  0  0  # atno 3781 bound_to 1176
  -14.4090  -27.7779  -37.9251 H   0  0  0  0  0  0  0  0  0  0  0  0  # atno 3847 bound_to 1247
  -13.5954  -25.3493  -39.6195 H   0  0  0  0  0  0  0  0  0  0  0  0  # atno 4507 bound_to 1931
   -3.0180  -32.7501  -36.6627 H   0  0  0  0  0  0  0  0  0  0  0  0  # atno 4531 bound_to 1957
  -10.2288  -37.3102  -32.4493 LP  0  0  0  0  0  0  0  0  0  0  0  0  # atno 5205 bound_to 1176
  -10.6139  -36.9853  -34.0026 LP  0  0  0  0  0  0  0  0  0  0  0  0  # atno 5206 bound_to 1176
  -15.2264  -28.9535  -37.1518 LP  0  0  0  0  0  0  0  0  0  0  0  0  # atno 5215 bound_to 1247
  -15.9345  -27.5079  -37.4269 LP  0  0  0  0  0  0  0  0  0  0  0  0  # atno 5216 bound_to 1247
  -13.0964  -24.0002  -40.3804 LP  0  0  0  0  0  0  0  0  0  0  0  0  # atno 5217 bound_to 1931
  -12.4992  -24.3792  -38.9085 LP  0  0  0  0  0  0  0  0  0  0  0  0  # atno 5218 bound_to 1931
  -11.1104  -23.0312  -31.3152 LP  0  0  0  0  0  0  0  0  0  0  0  0  # atno 5224 bound_to 1070
  -12.1905  -22.2738  -30.3528 LP  0  0  0  0  0  0  0  0  0  0  0  0  # atno 5225 bound_to 1070

$$$$
EZ_15|Lisa_paper2_min|sdf|3|dock3
  -GOLD-  10182016523D 1   1.00000     0.00000

 63 66  0  0  0  0  0  0  0  0  1 V2000
   -3.0498  -31.6808  -31.8358 C   0  0  0  0  0  0  0  0  0  0  0  0
   -3.9943  -32.0829  -30.8937 C   0  0  0  0  0  0  0  0  0  0  0  0
   -3.4406  -31.0027  -32.9941 C   0  0  0  0  0  0  0  0  0  0  0  0
   -5.3569  -31.8217  -31.0764 C   0  0  0  0  0  0  0  0  0  0  0  0
  -10.7786  -27.5924  -36.7830 C   0  0  0  0  0  0  0  0  0  0  0  0
  -16.6414  -24.8208  -38.9497 C   0  0  0  0  0  0  0  0  0  0  0  0
   -9.7416  -28.2268  -36.0992 C   0  0  0  0  0  0  0  0  0  0  0  0
  -18.0196  -24.6313  -39.0504 C   0  0  0  0  0  0  0  0  0  0  0  0
  -10.0948  -26.7654  -34.2080 C   0  0  0  0  0  0  0  0  0  0  0  0
  -16.8404  -24.9931  -36.5481 C   0  0  0  0  0  0  0  0  0  0  0  0
  -11.1317  -26.1308  -34.8919 C   0  0  0  0  0  0  0  0  0  0  0  0
   -4.8060  -30.7322  -33.1936 C   0  0  0  0  0  0  0  0  0  0  0  0
   -5.7403  -31.1410  -32.2410 C   0  0  0  0  0  0  0  0  0  0  0  0
  -16.0517  -25.0016  -37.6986 C   0  0  0  0  0  0  0  0  0  0  0  0
  -11.4736  -26.5443  -36.1794 C   0  0  0  0  0  0  0  0  0  0  0  0
   -9.3996  -27.8134  -34.8117 C   0  0  0  0  0  0  0  0  0  0  0  0
  -18.8082  -24.6228  -37.8998 C   0  0  0  0  0  0  0  0  0  0  0  0
  -18.2186  -24.8037  -36.6487 C   0  0  0  0  0  0  0  0  0  0  0  0
   -6.6948  -30.1001  -33.9426 C   0  0  0  0  0  0  0  0  0  0  0  0
   -8.2250  -30.8953  -32.1510 C   0  0  0  0  0  0  0  0  0  0  0  0
  -13.8932  -25.9405  -36.7069 C   0  0  0  0  0  0  0  0  0  0  0  0
  -11.8585  -25.0111  -34.2205 C   0  0  0  0  0  0  0  0  0  0  0  0
  -10.7345  -32.1529  -32.5831 C   0  0  0  0  0  0  0  0  0  0  0  0
  -10.7183  -30.1059  -31.1274 C   0  0  0  0  0  0  0  0  0  0  0  0
  -11.4819  -29.9372  -33.5142 C   0  0  0  0  0  0  0  0  0  0  0  0
   -7.7210  -29.4979  -34.8246 C   0  0  0  0  0  0  0  0  0  0  0  0
  -10.5305  -30.6390  -32.5462 C   0  0  0  0  0  0  0  0  0  0  0  0
   -5.4165  -30.0910  -34.2375 N   0  0  0  0  0  0  0  0  0  0  0  0
   -6.9678  -30.7227  -32.7410 N   0  0  0  0  0  0  0  0  0  0  0  0
  -14.6512  -25.1948  -37.5968 N   0  0  0  0  0  0  0  0  0  0  0  0
  -12.5078  -25.9202  -36.8815 N   0  0  0  0  0  0  0  0  0  0  0  0
   -8.3516  -31.4647  -31.0796 O   0  0  0  0  0  0  0  0  0  0  0  0
   -8.3826  -28.4363  -34.1405 O   0  0  0  0  0  0  0  0  0  0  0  0
   -9.1856  -30.3512  -32.9401 O   0  0  0  0  0  0  0  0  0  0  0  0
  -14.7409  -26.8958  -35.6072 S   0  0  0  0  0  0  0  0  0  0  0  0
  -20.5092  -24.3803  -38.0901 Cl  0  0  0  0  0  0  0  0  0  0  0  0
  -19.1422  -24.8009  -35.1871 Cl  0  0  0  0  0  0  0  0  0  0  0  0
   -1.9978  -31.8961  -31.6698 H   0  0  0  0  0  0  0  0  0  0  0  0
   -3.6682  -32.6096  -30.0003 H   0  0  0  0  0  0  0  0  0  0  0  0
   -2.6991  -30.6927  -33.7239 H   0  0  0  0  0  0  0  0  0  0  0  0
   -6.0714  -32.1452  -30.3287 H   0  0  0  0  0  0  0  0  0  0  0  0
  -11.0354  -27.9226  -37.7866 H   0  0  0  0  0  0  0  0  0  0  0  0
  -16.0361  -24.8273  -39.8526 H   0  0  0  0  0  0  0  0  0  0  0  0
   -9.2043  -29.0429  -36.5746 H   0  0  0  0  0  0  0  0  0  0  0  0
  -18.4622  -24.4934  -40.0337 H   0  0  0  0  0  0  0  0  0  0  0  0
   -9.8255  -26.4451  -33.2043 H   0  0  0  0  0  0  0  0  0  0  0  0
  -16.3745  -25.1335  -35.5747 H   0  0  0  0  0  0  0  0  0  0  0  0
  -11.6983  -25.0510  -33.1371 H   0  0  0  0  0  0  0  0  0  0  0  0
  -11.5137  -24.0379  -34.5901 H   0  0  0  0  0  0  0  0  0  0  0  0
  -12.9361  -25.0646  -34.4176 H   0  0  0  0  0  0  0  0  0  0  0  0
  -10.1170  -32.6479  -31.8252 H   0  0  0  0  0  0  0  0  0  0  0  0
  -11.7812  -32.4232  -32.4097 H   0  0  0  0  0  0  0  0  0  0  0  0
  -10.4262  -32.5655  -33.5507 H   0  0  0  0  0  0  0  0  0  0  0  0
  -11.7679  -29.8500  -30.9426 H   0  0  0  0  0  0  0  0  0  0  0  0
  -10.1448  -29.1839  -30.9779 H   0  0  0  0  0  0  0  0  0  0  0  0
  -10.4021  -30.8367  -30.3761 H   0  0  0  0  0  0  0  0  0  0  0  0
  -11.4176  -28.8485  -33.4054 H   0  0  0  0  0  0  0  0  0  0  0  0
  -11.2600  -30.1942  -34.5551 H   0  0  0  0  0  0  0  0  0  0  0  0
  -12.5226  -30.2081  -33.3029 H   0  0  0  0  0  0  0  0  0  0  0  0
   -7.2801  -29.0891  -35.7487 H   0  0  0  0  0  0  0  0  0  0  0  0
   -8.4790  -30.2372  -35.1310 H   0  0  0  0  0  0  0  0  0  0  0  0
  -14.1096  -24.7279  -38.3213 H   0  0  0  0  0  0  0  0  0  0  0  0
  -12.2171  -25.4324  -37.7353 H   0  0  0  0  0  0  0  0  0  0  0  0
  1  2  2  0  0  0  0
  1  3  1  0  0  0  0
  2  4  1  0  0  0  0
  3 12  2  0  0  0  0
  4 13  2  0  0  0  0
  5  7  1  0  0  0  0
  5 15  2  0  0  0  0
  6  8  1  0  0  0  0
  6 14  2  0  0  0  0
  7 16  2  0  0  0  0
  8 17  2  0  0  0  0
  9 11  2  0  0  0  0
  9 16  1  0  0  0  0
 10 14  1  0  0  0  0
 10 18  2  0  0  0  0
 11 15  1  0  0  0  0
 11 22  1  0  0  0  0
 12 13  1  0  0  0  0
 12 28  1  0  0  0  0
 13 29  1  0  0  0  0
 14 30  1  0  0  0  0
 15 31  1  0  0  0  0
 16 33  1  0  0  0  0
 17 18  1  0  0  0  0
 17 36  1  0  0  0  0
 18 37  1  0  0  0  0
 19 26  1  0  0  0  0
 19 28  2  0  0  0  0
 19 29  1  0  0  0  0
 20 29  1  0  0  0  0
 20 32  2  0  0  0  0
 20 34  1  0  0  0  0
 21 30  1  0  0  0  0
 21 31  1  0  0  0  0
 21 35  2  0  0  0  0
 23 27  1  0  0  0  0
 24 27  1  0  0  0  0
 25 27  1  0  0  0  0
 26 33  1  0  0  0  0
 27 34  1  0  0  0  0
  1 38  1  0  0  0  0
  2 39  1  0  0  0  0
  3 40  1  0  0  0  0
  4 41  1  0  0  0  0
  5 42  1  0  0  0  0
  6 43  1  0  0  0  0
  7 44  1  0  0  0  0
  8 45  1  0  0  0  0
  9 46  1  0  0  0  0
 10 47  1  0  0  0  0
 22 48  1  0  0  0  0
 22 49  1  0  0  0  0
 22 50  1  0  0  0  0
 23 51  1  0  0  0  0
 23 52  1  0  0  0  0
 23 53  1  0  0  0  0
 24 54  1  0  0  0  0
 24 55  1  0  0  0  0
 24 56  1  0  0  0  0
 25 57  1  0  0  0  0
 25 58  1  0  0  0  0
 25 59  1  0  0  0  0
 26 60  1  0  0  0  0
 26 61  1  0  0  0  0
 30 62  1  0  0  0  0
 31 63  1  0  0  0  0
M  END
> <Name>
EZ_15

> <SourceTag>
EZ_15

> <Activity_FLAP>
100

> <Activity_sEH>
100000

> <Gold.Version>
5.2

> <Gold.Id.Protein>
6HGV|6HGV_protein|mol2

> <Gold.Goldscore.Fitness>
82.6448

> <Gold.Goldscore.Internal.Vdw>
-17.2322

> <Gold.Goldscore.Internal.Torsion>
-9.9092

> <Gold.Goldscore.External.Vdw>
63.9725

> <Gold.Goldscore.Internal.HBond>
0.0000

> <Gold.Goldscore.External.HBond>
1.4996

> <Gold.Goldscore.Internal.Correction>
-20.3245

> <Gold.Goldscore.Hbonds>
donor molecule, donor type, donor heavy atom, donor atom, acceptor molecule, acceptor atom, score
      L1  H    30    62       P1  1931  0.50
      L1  H    31    63       P1  1931  0.25

> <Gold.Goldscore.Internal.Vdw.Weighted>
-17.2322

> <Gold.Goldscore.Internal.Torsion.Weighted>
-9.9092

> <Gold.Goldscore.External.Vdw.Weighted>
87.9622

> <Gold.Goldscore.Internal.HBond.Weighted>
0.0000

> <Gold.Goldscore.External.HBond.Weighted>
1.4996

> <Gold.Goldscore.Internal.Correction.Weighted>
-20.3245

> <Gold.Protein.RotatedTorsions>
[ 3781 1176 1175 1172 ] final  167.00 input   60.00 | X-H torsion
[ 3847 1247 1246 1244 ] final   88.18 input   60.00 | X-H torsion
[ 4507 1931 1930 1928 ] final -170.13 input   60.00 | X-H torsion
[ 3677 1070 1069 1066 ] final -149.17 input   60.00 | X-H torsion
[ 3525  925  924  922 ] final  -30.20 input   59.99 | X-H torsion
[ 4531 1957 1955 1953 ] final    1.17 input   60.00 | X-H torsion

> <Gold.Protein.ActiveResidues>
 PHE267  PRO268  MET310  ASP335  TRP336  MET339  TYR343  THR360  PRO361  ILE363 
 PRO371  SER374  ILE375  ASN378  PHE381  TYR383  GLN384  PHE387  LEU408  LEU417 
 MET419  LEU428  TYR466  MET469  ASN472  ASP496  VAL498  LEU499  MET503  HIS524 
 TRP525 

> <Gold.Protein.RotatedAtoms>
   -3.7660  -29.5140  -30.0191 H   0  0  0  0  0  0  0  0  0  0  0  0  # atno 3525 bound_to 925 
  -11.1790  -23.2094  -31.3800 H   0  0  0  0  0  0  0  0  0  0  0  0  # atno 3677 bound_to 1070
   -9.3397  -36.6293  -32.6915 H   0  0  0  0  0  0  0  0  0  0  0  0  # atno 3781 bound_to 1176
  -14.4968  -28.7095  -37.5343 H   0  0  0  0  0  0  0  0  0  0  0  0  # atno 3847 bound_to 1247
  -12.9767  -23.9118  -40.2878 H   0  0  0  0  0  0  0  0  0  0  0  0  # atno 4507 bound_to 1931
   -2.8695  -32.5150  -36.6869 H   0  0  0  0  0  0  0  0  0  0  0  0  # atno 4531 bound_to 1957
  -10.7206  -37.4486  -32.9557 LP  0  0  0  0  0  0  0  0  0  0  0  0  # atno 5205 bound_to 1176
  -10.0554  -36.5570  -34.1512 LP  0  0  0  0  0  0  0  0  0  0  0  0  # atno 5206 bound_to 1176
  -16.0091  -28.3000  -37.0946 LP  0  0  0  0  0  0  0  0  0  0  0  0  # atno 5215 bound_to 1247
  -15.0635  -27.2232  -37.8777 LP  0  0  0  0  0  0  0  0  0  0  0  0  # atno 5216 bound_to 1247
  -12.5631  -24.5277  -38.8395 LP  0  0  0  0  0  0  0  0  0  0  0  0  # atno 5217 bound_to 1931
  -13.6556  -25.2994  -39.7763 LP  0  0  0  0  0  0  0  0  0  0  0  0  # atno 5218 bound_to 1931
  -12.0074  -22.2050  -30.4037 LP  0  0  0  0  0  0  0  0  0  0  0  0  # atno 5224 bound_to 1070
  -12.6731  -23.6177  -30.8809 LP  0  0  0  0  0  0  0  0  0  0  0  0  # atno 5225 bound_to 1070

$$$$
EZ_15|Lisa_paper2_min|sdf|3|dock8
  -GOLD-  10182016533D 1   1.00000     0.00000

 63 66  0  0  0  0  0  0  0  0  1 V2000
   -2.4783  -31.4707  -32.3755 C   0  0  0  0  0  0  0  0  0  0  0  0
   -2.9943  -32.7648  -32.3972 C   0  0  0  0  0  0  0  0  0  0  0  0
   -3.2137  -30.4001  -32.8923 C   0  0  0  0  0  0  0  0  0  0  0  0
   -4.2586  -33.0320  -32.9339 C   0  0  0  0  0  0  0  0  0  0  0  0
  -10.6340  -27.7135  -36.7554 C   0  0  0  0  0  0  0  0  0  0  0  0
  -16.5005  -25.1768  -38.2414 C   0  0  0  0  0  0  0  0  0  0  0  0
   -9.4942  -28.3899  -36.3208 C   0  0  0  0  0  0  0  0  0  0  0  0
  -17.8950  -25.1525  -38.2466 C   0  0  0  0  0  0  0  0  0  0  0  0
   -9.0671  -26.6374  -34.7135 C   0  0  0  0  0  0  0  0  0  0  0  0
  -16.5097  -25.1918  -35.8255 C   0  0  0  0  0  0  0  0  0  0  0  0
  -10.2069  -25.9609  -35.1482 C   0  0  0  0  0  0  0  0  0  0  0  0
   -4.4862  -30.6510  -33.4358 C   0  0  0  0  0  0  0  0  0  0  0  0
   -4.9897  -31.9523  -33.4502 C   0  0  0  0  0  0  0  0  0  0  0  0
  -15.8077  -25.1963  -37.0309 C   0  0  0  0  0  0  0  0  0  0  0  0
  -10.9903  -26.4989  -36.1691 C   0  0  0  0  0  0  0  0  0  0  0  0
   -8.7107  -27.8519  -35.2999 C   0  0  0  0  0  0  0  0  0  0  0  0
  -18.5970  -25.1479  -37.0412 C   0  0  0  0  0  0  0  0  0  0  0  0
  -17.9043  -25.1675  -35.8306 C   0  0  0  0  0  0  0  0  0  0  0  0
   -6.4057  -30.5073  -34.3428 C   0  0  0  0  0  0  0  0  0  0  0  0
   -7.1528  -32.8785  -34.2902 C   0  0  0  0  0  0  0  0  0  0  0  0
  -13.4935  -26.0937  -36.4282 C   0  0  0  0  0  0  0  0  0  0  0  0
  -10.5640  -24.6618  -34.5019 C   0  0  0  0  0  0  0  0  0  0  0  0
   -9.7132  -33.3143  -33.2088 C   0  0  0  0  0  0  0  0  0  0  0  0
  -10.6007  -32.4193  -35.3815 C   0  0  0  0  0  0  0  0  0  0  0  0
   -9.2368  -34.5281  -35.3615 C   0  0  0  0  0  0  0  0  0  0  0  0
   -7.6086  -29.9366  -34.9916 C   0  0  0  0  0  0  0  0  0  0  0  0
   -9.4510  -33.1643  -34.7066 C   0  0  0  0  0  0  0  0  0  0  0  0
   -5.3766  -29.7729  -33.9923 N   0  0  0  0  0  0  0  0  0  0  0  0
   -6.2419  -31.8451  -34.0438 N   0  0  0  0  0  0  0  0  0  0  0  0
  -14.3905  -25.2216  -37.0260 N   0  0  0  0  0  0  0  0  0  0  0  0
  -12.1344  -25.8356  -36.6196 N   0  0  0  0  0  0  0  0  0  0  0  0
   -6.9033  -34.0324  -33.9829 O   0  0  0  0  0  0  0  0  0  0  0  0
   -7.5927  -28.5159  -34.8731 O   0  0  0  0  0  0  0  0  0  0  0  0
   -8.2667  -32.3820  -34.8854 O   0  0  0  0  0  0  0  0  0  0  0  0
  -14.1487  -27.4425  -35.6589 S   0  0  0  0  0  0  0  0  0  0  0  0
  -20.3238  -25.1144  -37.1140 Cl  0  0  0  0  0  0  0  0  0  0  0  0
  -18.7175  -25.1609  -34.3050 Cl  0  0  0  0  0  0  0  0  0  0  0  0
   -1.4936  -31.2902  -31.9529 H   0  0  0  0  0  0  0  0  0  0  0  0
   -2.4047  -33.5827  -31.9903 H   0  0  0  0  0  0  0  0  0  0  0  0
   -2.8051  -29.3945  -32.8724 H   0  0  0  0  0  0  0  0  0  0  0  0
   -4.6370  -34.0474  -32.9389 H   0  0  0  0  0  0  0  0  0  0  0  0
  -11.2363  -28.1421  -37.5527 H   0  0  0  0  0  0  0  0  0  0  0  0
  -15.9631  -25.1817  -39.1863 H   0  0  0  0  0  0  0  0  0  0  0  0
   -9.2222  -29.3358  -36.7812 H   0  0  0  0  0  0  0  0  0  0  0  0
  -18.4184  -25.1390  -39.1994 H   0  0  0  0  0  0  0  0  0  0  0  0
   -8.4540  -26.2203  -33.9182 H   0  0  0  0  0  0  0  0  0  0  0  0
  -15.9637  -25.2058  -34.8843 H   0  0  0  0  0  0  0  0  0  0  0  0
  -11.5161  -24.7537  -33.9671 H   0  0  0  0  0  0  0  0  0  0  0  0
   -9.7910  -24.3485  -33.7899 H   0  0  0  0  0  0  0  0  0  0  0  0
  -10.6562  -23.8618  -35.2466 H   0  0  0  0  0  0  0  0  0  0  0  0
   -8.9432  -33.9365  -32.7388 H   0  0  0  0  0  0  0  0  0  0  0  0
   -9.7320  -32.3432  -32.7033 H   0  0  0  0  0  0  0  0  0  0  0  0
  -10.6701  -33.8173  -33.0277 H   0  0  0  0  0  0  0  0  0  0  0  0
  -10.8522  -31.5069  -34.8287 H   0  0  0  0  0  0  0  0  0  0  0  0
  -11.5089  -33.0326  -35.3945 H   0  0  0  0  0  0  0  0  0  0  0  0
  -10.3538  -32.1435  -36.4118 H   0  0  0  0  0  0  0  0  0  0  0  0
   -8.7945  -34.4182  -36.3583 H   0  0  0  0  0  0  0  0  0  0  0  0
   -8.5800  -35.1654  -34.7604 H   0  0  0  0  0  0  0  0  0  0  0  0
  -10.1918  -35.0471  -35.5025 H   0  0  0  0  0  0  0  0  0  0  0  0
   -7.6578  -30.1915  -36.0630 H   0  0  0  0  0  0  0  0  0  0  0  0
   -8.5367  -30.3117  -34.5301 H   0  0  0  0  0  0  0  0  0  0  0  0
  -13.9560  -24.4885  -37.5827 H   0  0  0  0  0  0  0  0  0  0  0  0
  -11.9591  -25.0772  -37.2871 H   0  0  0  0  0  0  0  0  0  0  0  0
  1  2  2  0  0  0  0
  1  3  1  0  0  0  0
  2  4  1  0  0  0  0
  3 12  2  0  0  0  0
  4 13  2  0  0  0  0
  5  7  1  0  0  0  0
  5 15  2  0  0  0  0
  6  8  1  0  0  0  0
  6 14  2  0  0  0  0
  7 16  2  0  0  0  0
  8 17  2  0  0  0  0
  9 11  2  0  0  0  0
  9 16  1  0  0  0  0
 10 14  1  0  0  0  0
 10 18  2  0  0  0  0
 11 15  1  0  0  0  0
 11 22  1  0  0  0  0
 12 13  1  0  0  0  0
 12 28  1  0  0  0  0
 13 29  1  0  0  0  0
 14 30  1  0  0  0  0
 15 31  1  0  0  0  0
 16 33  1  0  0  0  0
 17 18  1  0  0  0  0
 17 36  1  0  0  0  0
 18 37  1  0  0  0  0
 19 26  1  0  0  0  0
 19 28  2  0  0  0  0
 19 29  1  0  0  0  0
 20 29  1  0  0  0  0
 20 32  2  0  0  0  0
 20 34  1  0  0  0  0
 21 30  1  0  0  0  0
 21 31  1  0  0  0  0
 21 35  2  0  0  0  0
 23 27  1  0  0  0  0
 24 27  1  0  0  0  0
 25 27  1  0  0  0  0
 26 33  1  0  0  0  0
 27 34  1  0  0  0  0
  1 38  1  0  0  0  0
  2 39  1  0  0  0  0
  3 40  1  0  0  0  0
  4 41  1  0  0  0  0
  5 42  1  0  0  0  0
  6 43  1  0  0  0  0
  7 44  1  0  0  0  0
  8 45  1  0  0  0  0
  9 46  1  0  0  0  0
 10 47  1  0  0  0  0
 22 48  1  0  0  0  0
 22 49  1  0  0  0  0
 22 50  1  0  0  0  0
 23 51  1  0  0  0  0
 23 52  1  0  0  0  0
 23 53  1  0  0  0  0
 24 54  1  0  0  0  0
 24 55  1  0  0  0  0
 24 56  1  0  0  0  0
 25 57  1  0  0  0  0
 25 58  1  0  0  0  0
 25 59  1  0  0  0  0
 26 60  1  0  0  0  0
 26 61  1  0  0  0  0
 30 62  1  0  0  0  0
 31 63  1  0  0  0  0
M  END
> <Name>
EZ_15

> <SourceTag>
EZ_15

> <Activity_FLAP>
100

> <Activity_sEH>
100000

> <Gold.Version>
5.2

> <Gold.Id.Protein>
6HGV|6HGV_protein|mol2

> <Gold.Goldscore.Fitness>
81.6691

> <Gold.Goldscore.Internal.Vdw>
-14.1754

> <Gold.Goldscore.Internal.Torsion>
-14.5831

> <Gold.Goldscore.External.Vdw>
65.5296

> <Gold.Goldscore.Internal.HBond>
0.0000

> <Gold.Goldscore.External.HBond>
0.0000

> <Gold.Goldscore.Internal.Correction>
-20.3245

> <Gold.Goldscore.Internal.Vdw.Weighted>
-14.1754

> <Gold.Goldscore.Internal.Torsion.Weighted>
-14.5831

> <Gold.Goldscore.External.Vdw.Weighted>
90.1031

> <Gold.Goldscore.Internal.HBond.Weighted>
0.0000

> <Gold.Goldscore.External.HBond.Weighted>
0.0000

> <Gold.Goldscore.Internal.Correction.Weighted>
-20.3245

> <Gold.Protein.RotatedTorsions>
[ 3781 1176 1175 1172 ] final  170.42 input   60.00 | X-H torsion
[ 3847 1247 1246 1244 ] final  -52.58 input   60.00 | X-H torsion
[ 4507 1931 1930 1928 ] final  -39.59 input   60.00 | X-H torsion
[ 3677 1070 1069 1066 ] final -176.87 input   60.00 | X-H torsion
[ 3525  925  924  922 ] final  -20.17 input   59.99 | X-H torsion
[ 4531 1957 1955 1953 ] final   24.64 input   60.00 | X-H torsion

> <Gold.Protein.ActiveResidues>
 PHE267  PRO268  MET310  ASP335  TRP336  MET339  TYR343  THR360  PRO361  ILE363 
 PRO371  SER374  ILE375  ASN378  PHE381  TYR383  GLN384  PHE387  LEU408  LEU417 
 MET419  LEU428  TYR466  MET469  ASN472  ASP496  VAL498  LEU499  MET503  HIS524 
 TRP525 

> <Gold.Protein.RotatedAtoms>
   -3.7346  -29.5130  -30.1797 H   0  0  0  0  0  0  0  0  0  0  0  0  # atno 3525 bound_to 925 
  -11.0900  -22.8102  -31.1964 H   0  0  0  0  0  0  0  0  0  0  0  0  # atno 3677 bound_to 1070
   -9.3182  -36.5992  -32.7334 H   0  0  0  0  0  0  0  0  0  0  0  0  # atno 3781 bound_to 1176
  -16.0675  -27.9822  -37.1960 H   0  0  0  0  0  0  0  0  0  0  0  0  # atno 3847 bound_to 1247
  -13.5963  -25.3487  -39.6218 H   0  0  0  0  0  0  0  0  0  0  0  0  # atno 4507 bound_to 1931
   -3.0544  -32.8466  -36.6575 H   0  0  0  0  0  0  0  0  0  0  0  0  # atno 4531 bound_to 1957
  -10.6946  -37.4499  -32.9058 LP  0  0  0  0  0  0  0  0  0  0  0  0  # atno 5205 bound_to 1176
  -10.1030  -36.5859  -34.1589 LP  0  0  0  0  0  0  0  0  0  0  0  0  # atno 5206 bound_to 1176
  -14.7609  -27.3633  -37.9428 LP  0  0  0  0  0  0  0  0  0  0  0  0  # atno 5215 bound_to 1247
  -14.7298  -28.8923  -37.3702 LP  0  0  0  0  0  0  0  0  0  0  0  0  # atno 5216 bound_to 1247
  -13.0947  -23.9986  -40.3792 LP  0  0  0  0  0  0  0  0  0  0  0  0  # atno 5217 bound_to 1931
  -12.5000  -24.3814  -38.9073 LP  0  0  0  0  0  0  0  0  0  0  0  0  # atno 5218 bound_to 1931
  -12.4032  -22.4069  -30.3240 LP  0  0  0  0  0  0  0  0  0  0  0  0  # atno 5224 bound_to 1070
  -12.3669  -23.8178  -31.1454 LP  0  0  0  0  0  0  0  0  0  0  0  0  # atno 5225 bound_to 1070

$$$$
EZ_15|Lisa_paper2_min|sdf|3|dock6
  -GOLD-  10182016533D 1   1.00000     0.00000

 63 66  0  0  0  0  0  0  0  0  1 V2000
   -2.5675  -29.2785  -32.9485 C   0  0  0  0  0  0  0  0  0  0  0  0
   -2.7658  -30.6471  -33.1189 C   0  0  0  0  0  0  0  0  0  0  0  0
   -3.6151  -28.3749  -33.1491 C   0  0  0  0  0  0  0  0  0  0  0  0
   -4.0136  -31.1575  -33.4940 C   0  0  0  0  0  0  0  0  0  0  0  0
  -11.4059  -25.1220  -34.5432 C   0  0  0  0  0  0  0  0  0  0  0  0
  -16.6066  -23.8911  -37.9815 C   0  0  0  0  0  0  0  0  0  0  0  0
  -10.0957  -25.5741  -34.3870 C   0  0  0  0  0  0  0  0  0  0  0  0
  -17.6400  -23.6187  -38.8778 C   0  0  0  0  0  0  0  0  0  0  0  0
  -10.8274  -27.8386  -34.8039 C   0  0  0  0  0  0  0  0  0  0  0  0
  -18.1572  -25.0692  -36.5516 C   0  0  0  0  0  0  0  0  0  0  0  0
  -12.1377  -27.3865  -34.9600 C   0  0  0  0  0  0  0  0  0  0  0  0
   -4.8756  -28.8708  -33.5266 C   0  0  0  0  0  0  0  0  0  0  0  0
   -5.0590  -30.2441  -33.6931 C   0  0  0  0  0  0  0  0  0  0  0  0
  -16.8652  -24.6163  -36.8183 C   0  0  0  0  0  0  0  0  0  0  0  0
  -12.4269  -26.0283  -34.8296 C   0  0  0  0  0  0  0  0  0  0  0  0
   -9.8063  -26.9324  -34.5174 C   0  0  0  0  0  0  0  0  0  0  0  0
  -18.9321  -24.0716  -38.6110 C   0  0  0  0  0  0  0  0  0  0  0  0
  -19.1907  -24.7969  -37.4479 C   0  0  0  0  0  0  0  0  0  0  0  0
   -6.9142  -29.1077  -34.0885 C   0  0  0  0  0  0  0  0  0  0  0  0
   -7.0706  -31.5765  -34.3414 C   0  0  0  0  0  0  0  0  0  0  0  0
  -14.5396  -25.3995  -36.1098 C   0  0  0  0  0  0  0  0  0  0  0  0
  -13.2110  -28.3800  -35.2663 C   0  0  0  0  0  0  0  0  0  0  0  0
   -8.6296  -33.1078  -36.2321 C   0  0  0  0  0  0  0  0  0  0  0  0
   -9.0495  -33.4157  -33.7747 C   0  0  0  0  0  0  0  0  0  0  0  0
  -10.6116  -32.0031  -35.1431 C   0  0  0  0  0  0  0  0  0  0  0  0
   -8.3180  -28.7854  -34.4340 C   0  0  0  0  0  0  0  0  0  0  0  0
   -9.1643  -32.4564  -34.9575 C   0  0  0  0  0  0  0  0  0  0  0  0
   -6.0343  -28.1861  -33.7760 N   0  0  0  0  0  0  0  0  0  0  0  0
   -6.3923  -30.3854  -34.0592 N   0  0  0  0  0  0  0  0  0  0  0  0
  -15.8146  -24.8934  -35.9081 N   0  0  0  0  0  0  0  0  0  0  0  0
  -13.7332  -25.5562  -34.9803 N   0  0  0  0  0  0  0  0  0  0  0  0
   -6.5078  -32.6573  -34.2847 O   0  0  0  0  0  0  0  0  0  0  0  0
   -8.5206  -27.3758  -34.3648 O   0  0  0  0  0  0  0  0  0  0  0  0
   -8.3621  -31.3094  -34.6615 O   0  0  0  0  0  0  0  0  0  0  0  0
  -14.0631  -25.6333  -37.7093 S   0  0  0  0  0  0  0  0  0  0  0  0
  -20.1700  -23.6994  -39.7588 Cl  0  0  0  0  0  0  0  0  0  0  0  0
  -20.7706  -25.3829  -37.0610 Cl  0  0  0  0  0  0  0  0  0  0  0  0
   -1.5885  -28.9081  -32.6569 H   0  0  0  0  0  0  0  0  0  0  0  0
   -1.9368  -31.3319  -32.9582 H   0  0  0  0  0  0  0  0  0  0  0  0
   -3.4531  -27.3098  -33.0149 H   0  0  0  0  0  0  0  0  0  0  0  0
   -4.1417  -32.2261  -33.6200 H   0  0  0  0  0  0  0  0  0  0  0  0
  -11.6196  -24.0611  -34.4381 H   0  0  0  0  0  0  0  0  0  0  0  0
  -15.6031  -23.5349  -38.1997 H   0  0  0  0  0  0  0  0  0  0  0  0
   -9.3046  -24.8632  -34.1644 H   0  0  0  0  0  0  0  0  0  0  0  0
  -17.4200  -23.0535  -39.7800 H   0  0  0  0  0  0  0  0  0  0  0  0
  -10.5987  -28.8969  -34.9045 H   0  0  0  0  0  0  0  0  0  0  0  0
  -18.3531  -25.6334  -35.6419 H   0  0  0  0  0  0  0  0  0  0  0  0
  -12.8441  -29.3987  -35.0967 H   0  0  0  0  0  0  0  0  0  0  0  0
  -14.0933  -28.2160  -34.6360 H   0  0  0  0  0  0  0  0  0  0  0  0
  -13.5421  -28.2958  -36.3085 H   0  0  0  0  0  0  0  0  0  0  0  0
   -9.2089  -34.0030  -36.4846 H   0  0  0  0  0  0  0  0  0  0  0  0
   -8.6650  -32.4192  -37.0825 H   0  0  0  0  0  0  0  0  0  0  0  0
   -7.5932  -33.4382  -36.0972 H   0  0  0  0  0  0  0  0  0  0  0  0
   -9.9648  -34.0080  -33.6626 H   0  0  0  0  0  0  0  0  0  0  0  0
   -8.9216  -32.8644  -32.8361 H   0  0  0  0  0  0  0  0  0  0  0  0
   -8.2045  -34.1019  -33.8917 H   0  0  0  0  0  0  0  0  0  0  0  0
  -11.0120  -31.5825  -34.2136 H   0  0  0  0  0  0  0  0  0  0  0  0
  -10.6997  -31.2474  -35.9305 H   0  0  0  0  0  0  0  0  0  0  0  0
  -11.2556  -32.8516  -35.4012 H   0  0  0  0  0  0  0  0  0  0  0  0
   -8.5782  -29.1204  -35.4515 H   0  0  0  0  0  0  0  0  0  0  0  0
   -9.0285  -29.2711  -33.7453 H   0  0  0  0  0  0  0  0  0  0  0  0
  -16.0222  -24.6511  -34.9414 H   0  0  0  0  0  0  0  0  0  0  0  0
  -14.1519  -25.1652  -34.1298 H   0  0  0  0  0  0  0  0  0  0  0  0
  1  2  2  0  0  0  0
  1  3  1  0  0  0  0
  2  4  1  0  0  0  0
  3 12  2  0  0  0  0
  4 13  2  0  0  0  0
  5  7  1  0  0  0  0
  5 15  2  0  0  0  0
  6  8  1  0  0  0  0
  6 14  2  0  0  0  0
  7 16  2  0  0  0  0
  8 17  2  0  0  0  0
  9 11  2  0  0  0  0
  9 16  1  0  0  0  0
 10 14  1  0  0  0  0
 10 18  2  0  0  0  0
 11 15  1  0  0  0  0
 11 22  1  0  0  0  0
 12 13  1  0  0  0  0
 12 28  1  0  0  0  0
 13 29  1  0  0  0  0
 14 30  1  0  0  0  0
 15 31  1  0  0  0  0
 16 33  1  0  0  0  0
 17 18  1  0  0  0  0
 17 36  1  0  0  0  0
 18 37  1  0  0  0  0
 19 26  1  0  0  0  0
 19 28  2  0  0  0  0
 19 29  1  0  0  0  0
 20 29  1  0  0  0  0
 20 32  2  0  0  0  0
 20 34  1  0  0  0  0
 21 30  1  0  0  0  0
 21 31  1  0  0  0  0
 21 35  2  0  0  0  0
 23 27  1  0  0  0  0
 24 27  1  0  0  0  0
 25 27  1  0  0  0  0
 26 33  1  0  0  0  0
 27 34  1  0  0  0  0
  1 38  1  0  0  0  0
  2 39  1  0  0  0  0
  3 40  1  0  0  0  0
  4 41  1  0  0  0  0
  5 42  1  0  0  0  0
  6 43  1  0  0  0  0
  7 44  1  0  0  0  0
  8 45  1  0  0  0  0
  9 46  1  0  0  0  0
 10 47  1  0  0  0  0
 22 48  1  0  0  0  0
 22 49  1  0  0  0  0
 22 50  1  0  0  0  0
 23 51  1  0  0  0  0
 23 52  1  0  0  0  0
 23 53  1  0  0  0  0
 24 54  1  0  0  0  0
 24 55  1  0  0  0  0
 24 56  1  0  0  0  0
 25 57  1  0  0  0  0
 25 58  1  0  0  0  0
 25 59  1  0  0  0  0
 26 60  1  0  0  0  0
 26 61  1  0  0  0  0
 30 62  1  0  0  0  0
 31 63  1  0  0  0  0
M  END
> <Name>
EZ_15

> <SourceTag>
EZ_15

> <Activity_FLAP>
100

> <Activity_sEH>
100000

> <Gold.Version>
5.2

> <Gold.Id.Protein>
6HGV|6HGV_protein|mol2

> <Gold.Goldscore.Fitness>
77.9117

> <Gold.Goldscore.Internal.Vdw>
-14.7802

> <Gold.Goldscore.Internal.Torsion>
-11.9214

> <Gold.Goldscore.External.Vdw>
61.0925

> <Gold.Goldscore.Internal.HBond>
0.0000

> <Gold.Goldscore.External.HBond>
0.2866

> <Gold.Goldscore.Internal.Correction>
-20.3245

> <Gold.Goldscore.Hbonds>
donor molecule, donor type, donor heavy atom, donor atom, acceptor molecule, acceptor atom, score
      P1  H  1931  4507       L1    35  0.29

> <Gold.Goldscore.Internal.Vdw.Weighted>
-14.7802

> <Gold.Goldscore.Internal.Torsion.Weighted>
-11.9214

> <Gold.Goldscore.External.Vdw.Weighted>
84.0022

> <Gold.Goldscore.Internal.HBond.Weighted>
0.0000

> <Gold.Goldscore.External.HBond.Weighted>
0.2866

> <Gold.Goldscore.Internal.Correction.Weighted>
-20.3245

> <Gold.Protein.RotatedTorsions>
[ 3781 1176 1175 1172 ] final -131.84 input   60.00 | X-H torsion
[ 3847 1247 1246 1244 ] final  -64.64 input   60.00 | X-H torsion
[ 4507 1931 1930 1928 ] final   11.12 input   60.00 | X-H torsion
[ 3677 1070 1069 1066 ] final  -90.88 input   60.00 | X-H torsion
[ 3525  925  924  922 ] final  -16.02 input   59.99 | X-H torsion
[ 4531 1957 1955 1953 ] final   23.38 input   60.00 | X-H torsion

> <Gold.Protein.ActiveResidues>
 PHE267  PRO268  MET310  ASP335  TRP336  MET339  TYR343  THR360  PRO361  ILE363 
 PRO371  SER374  ILE375  ASN378  PHE381  TYR383  GLN384  PHE387  LEU408  LEU417 
 MET419  LEU428  TYR466  MET469  ASN472  ASP496  VAL498  LEU499  MET503  HIS524 
 TRP525 

> <Gold.Protein.RotatedAtoms>
   -3.7141  -29.5160  -30.2444 H   0  0  0  0  0  0  0  0  0  0  0  0  # atno 3525 bound_to 925 
  -11.8698  -23.8047  -31.3794 H   0  0  0  0  0  0  0  0  0  0  0  0  # atno 3677 bound_to 1070
   -9.3660  -36.3108  -33.5888 H   0  0  0  0  0  0  0  0  0  0  0  0  # atno 3781 bound_to 1176
  -16.0518  -27.8012  -37.2714 H   0  0  0  0  0  0  0  0  0  0  0  0  # atno 3847 bound_to 1247
  -13.1371  -25.2361  -38.9741 H   0  0  0  0  0  0  0  0  0  0  0  0  # atno 4507 bound_to 1931
   -3.0480  -32.8271  -36.6583 H   0  0  0  0  0  0  0  0  0  0  0  0  # atno 4531 bound_to 1957
  -10.0032  -37.1875  -32.3750 LP  0  0  0  0  0  0  0  0  0  0  0  0  # atno 5205 bound_to 1176
  -10.7462  -37.1389  -33.8283 LP  0  0  0  0  0  0  0  0  0  0  0  0  # atno 5206 bound_to 1176
  -14.6083  -27.4891  -37.9546 LP  0  0  0  0  0  0  0  0  0  0  0  0  # atno 5215 bound_to 1247
  -14.8981  -28.9488  -37.2825 LP  0  0  0  0  0  0  0  0  0  0  0  0  # atno 5216 bound_to 1247
  -13.5764  -24.6452  -40.4253 LP  0  0  0  0  0  0  0  0  0  0  0  0  # atno 5217 bound_to 1931
  -12.4808  -23.8482  -39.5135 LP  0  0  0  0  0  0  0  0  0  0  0  0  # atno 5218 bound_to 1931
  -11.2449  -22.3869  -30.8821 LP  0  0  0  0  0  0  0  0  0  0  0  0  # atno 5224 bound_to 1070
  -12.7399  -22.8363  -30.4031 LP  0  0  0  0  0  0  0  0  0  0  0  0  # atno 5225 bound_to 1070

$$$$
EZ_15|Lisa_paper2_min|sdf|3|dock2
  -GOLD-  10182016523D 1   1.00000     0.00000

 63 66  0  0  0  0  0  0  0  0  1 V2000
   -2.6091  -29.5738  -32.7483 C   0  0  0  0  0  0  0  0  0  0  0  0
   -2.9403  -30.9240  -32.6558 C   0  0  0  0  0  0  0  0  0  0  0  0
   -3.5648  -28.6290  -33.1331 C   0  0  0  0  0  0  0  0  0  0  0  0
   -4.2336  -31.3744  -32.9434 C   0  0  0  0  0  0  0  0  0  0  0  0
  -11.0376  -24.9646  -35.1087 C   0  0  0  0  0  0  0  0  0  0  0  0
  -17.7604  -25.2197  -37.1030 C   0  0  0  0  0  0  0  0  0  0  0  0
   -9.7720  -25.5016  -34.8733 C   0  0  0  0  0  0  0  0  0  0  0  0
  -18.8335  -25.1184  -37.9882 C   0  0  0  0  0  0  0  0  0  0  0  0
  -10.7059  -27.7290  -34.9338 C   0  0  0  0  0  0  0  0  0  0  0  0
  -16.4363  -23.8051  -38.5462 C   0  0  0  0  0  0  0  0  0  0  0  0
  -11.9716  -27.1920  -35.1689 C   0  0  0  0  0  0  0  0  0  0  0  0
   -4.8694  -29.0644  -33.4260 C   0  0  0  0  0  0  0  0  0  0  0  0
   -5.1862  -30.4199  -33.3287 C   0  0  0  0  0  0  0  0  0  0  0  0
  -16.5617  -24.5631  -37.3820 C   0  0  0  0  0  0  0  0  0  0  0  0
  -12.1374  -25.8098  -35.2564 C   0  0  0  0  0  0  0  0  0  0  0  0
   -9.6060  -26.8838  -34.7859 C   0  0  0  0  0  0  0  0  0  0  0  0
  -18.7081  -24.3603  -39.1525 C   0  0  0  0  0  0  0  0  0  0  0  0
  -17.5095  -23.7037  -39.4314 C   0  0  0  0  0  0  0  0  0  0  0  0
   -6.9240  -29.2074  -33.9606 C   0  0  0  0  0  0  0  0  0  0  0  0
   -7.3209  -31.6520  -33.7375 C   0  0  0  0  0  0  0  0  0  0  0  0
  -14.2759  -25.3624  -36.5694 C   0  0  0  0  0  0  0  0  0  0  0  0
  -13.1314  -28.1215  -35.3230 C   0  0  0  0  0  0  0  0  0  0  0  0
  -10.8820  -31.8904  -34.5280 C   0  0  0  0  0  0  0  0  0  0  0  0
   -8.9948  -33.3008  -35.3991 C   0  0  0  0  0  0  0  0  0  0  0  0
   -9.4622  -33.2221  -32.9326 C   0  0  0  0  0  0  0  0  0  0  0  0
   -8.2914  -28.8238  -34.3811 C   0  0  0  0  0  0  0  0  0  0  0  0
   -9.4828  -32.4331  -34.2409 C   0  0  0  0  0  0  0  0  0  0  0  0
   -5.9572  -28.3321  -33.8183 N   0  0  0  0  0  0  0  0  0  0  0  0
   -6.5287  -30.4999  -33.6794 N   0  0  0  0  0  0  0  0  0  0  0  0
  -15.4716  -24.6658  -36.4819 N   0  0  0  0  0  0  0  0  0  0  0  0
  -13.3972  -25.2527  -35.4895 N   0  0  0  0  0  0  0  0  0  0  0  0
   -6.8655  -32.7509  -33.4667 O   0  0  0  0  0  0  0  0  0  0  0  0
   -8.3642  -27.4107  -34.5556 O   0  0  0  0  0  0  0  0  0  0  0  0
   -8.5818  -31.3283  -34.1209 O   0  0  0  0  0  0  0  0  0  0  0  0
  -13.9620  -26.1455  -38.0284 S   0  0  0  0  0  0  0  0  0  0  0  0
  -20.0724  -24.2762  -40.2106 Cl  0  0  0  0  0  0  0  0  0  0  0  0
  -17.2922  -22.7517  -40.8581 Cl  0  0  0  0  0  0  0  0  0  0  0  0
   -1.5973  -29.2503  -32.5194 H   0  0  0  0  0  0  0  0  0  0  0  0
   -2.1810  -31.6418  -32.3552 H   0  0  0  0  0  0  0  0  0  0  0  0
   -3.2994  -27.5786  -33.2033 H   0  0  0  0  0  0  0  0  0  0  0  0
   -4.4655  -32.4299  -32.8640 H   0  0  0  0  0  0  0  0  0  0  0  0
  -11.1548  -23.8856  -35.1737 H   0  0  0  0  0  0  0  0  0  0  0  0
  -17.8692  -25.8116  -36.1978 H   0  0  0  0  0  0  0  0  0  0  0  0
   -8.9191  -24.8380  -34.7596 H   0  0  0  0  0  0  0  0  0  0  0  0
  -19.7606  -25.6355  -37.7540 H   0  0  0  0  0  0  0  0  0  0  0  0
  -10.5734  -28.8061  -34.8646 H   0  0  0  0  0  0  0  0  0  0  0  0
  -15.4982  -23.2962  -38.7590 H   0  0  0  0  0  0  0  0  0  0  0  0
  -12.8932  -29.0996  -34.8900 H   0  0  0  0  0  0  0  0  0  0  0  0
  -14.0244  -27.7257  -34.8245 H   0  0  0  0  0  0  0  0  0  0  0  0
  -13.3898  -28.2597  -36.3799 H   0  0  0  0  0  0  0  0  0  0  0  0
  -11.5881  -32.7089  -34.7076 H   0  0  0  0  0  0  0  0  0  0  0  0
  -11.2573  -31.2832  -33.6978 H   0  0  0  0  0  0  0  0  0  0  0  0
  -10.8844  -31.2754  -35.4353 H   0  0  0  0  0  0  0  0  0  0  0  0
   -8.9097  -32.7115  -36.3192 H   0  0  0  0  0  0  0  0  0  0  0  0
   -9.7088  -34.1046  -35.6122 H   0  0  0  0  0  0  0  0  0  0  0  0
   -8.0202  -33.7508  -35.1841 H   0  0  0  0  0  0  0  0  0  0  0  0
   -9.2195  -32.5696  -32.0861 H   0  0  0  0  0  0  0  0  0  0  0  0
  -10.4271  -33.7003  -32.7349 H   0  0  0  0  0  0  0  0  0  0  0  0
   -8.6879  -33.9974  -32.9573 H   0  0  0  0  0  0  0  0  0  0  0  0
   -8.5787  -29.3027  -35.3316 H   0  0  0  0  0  0  0  0  0  0  0  0
   -9.0453  -29.1191  -33.6329 H   0  0  0  0  0  0  0  0  0  0  0  0
  -15.5715  -24.1075  -35.6366 H   0  0  0  0  0  0  0  0  0  0  0  0
  -13.7010  -24.5650  -34.7921 H   0  0  0  0  0  0  0  0  0  0  0  0
  1  2  2  0  0  0  0
  1  3  1  0  0  0  0
  2  4  1  0  0  0  0
  3 12  2  0  0  0  0
  4 13  2  0  0  0  0
  5  7  1  0  0  0  0
  5 15  2  0  0  0  0
  6  8  1  0  0  0  0
  6 14  2  0  0  0  0
  7 16  2  0  0  0  0
  8 17  2  0  0  0  0
  9 11  2  0  0  0  0
  9 16  1  0  0  0  0
 10 14  1  0  0  0  0
 10 18  2  0  0  0  0
 11 15  1  0  0  0  0
 11 22  1  0  0  0  0
 12 13  1  0  0  0  0
 12 28  1  0  0  0  0
 13 29  1  0  0  0  0
 14 30  1  0  0  0  0
 15 31  1  0  0  0  0
 16 33  1  0  0  0  0
 17 18  1  0  0  0  0
 17 36  1  0  0  0  0
 18 37  1  0  0  0  0
 19 26  1  0  0  0  0
 19 28  2  0  0  0  0
 19 29  1  0  0  0  0
 20 29  1  0  0  0  0
 20 32  2  0  0  0  0
 20 34  1  0  0  0  0
 21 30  1  0  0  0  0
 21 31  1  0  0  0  0
 21 35  2  0  0  0  0
 23 27  1  0  0  0  0
 24 27  1  0  0  0  0
 25 27  1  0  0  0  0
 26 33  1  0  0  0  0
 27 34  1  0  0  0  0
  1 38  1  0  0  0  0
  2 39  1  0  0  0  0
  3 40  1  0  0  0  0
  4 41  1  0  0  0  0
  5 42  1  0  0  0  0
  6 43  1  0  0  0  0
  7 44  1  0  0  0  0
  8 45  1  0  0  0  0
  9 46  1  0  0  0  0
 10 47  1  0  0  0  0
 22 48  1  0  0  0  0
 22 49  1  0  0  0  0
 22 50  1  0  0  0  0
 23 51  1  0  0  0  0
 23 52  1  0  0  0  0
 23 53  1  0  0  0  0
 24 54  1  0  0  0  0
 24 55  1  0  0  0  0
 24 56  1  0  0  0  0
 25 57  1  0  0  0  0
 25 58  1  0  0  0  0
 25 59  1  0  0  0  0
 26 60  1  0  0  0  0
 26 61  1  0  0  0  0
 30 62  1  0  0  0  0
 31 63  1  0  0  0  0
M  END
> <Name>
EZ_15

> <SourceTag>
EZ_15

> <Activity_FLAP>
100

> <Activity_sEH>
100000

> <Gold.Version>
5.2

> <Gold.Id.Protein>
6HGV|6HGV_protein|mol2

> <Gold.Goldscore.Fitness>
74.8265

> <Gold.Goldscore.Internal.Vdw>
-13.6407

> <Gold.Goldscore.Internal.Torsion>
-13.5065

> <Gold.Goldscore.External.Vdw>
59.1366

> <Gold.Goldscore.Internal.HBond>
0.0000

> <Gold.Goldscore.External.HBond>
0.3364

> <Gold.Goldscore.Internal.Correction>
-20.3245

> <Gold.Goldscore.Hbonds>
donor molecule, donor type, donor heavy atom, donor atom, acceptor molecule, acceptor atom, score
      P1  H  1931  4507       L1    35  0.26
      L1  H    31    63       P1   853  0.01

> <Gold.Goldscore.Internal.Vdw.Weighted>
-13.6407

> <Gold.Goldscore.Internal.Torsion.Weighted>
-13.5065

> <Gold.Goldscore.External.Vdw.Weighted>
81.3128

> <Gold.Goldscore.Internal.HBond.Weighted>
0.0000

> <Gold.Goldscore.External.HBond.Weighted>
0.3364

> <Gold.Goldscore.Internal.Correction.Weighted>
-20.3245

> <Gold.Protein.RotatedTorsions>
[ 3781 1176 1175 1172 ] final -118.32 input   60.00 | X-H torsion
[ 3847 1247 1246 1244 ] final  -44.86 input   60.00 | X-H torsion
[ 4507 1931 1930 1928 ] final    7.26 input   60.00 | X-H torsion
[ 3677 1070 1069 1066 ] final -122.40 input   60.00 | X-H torsion
[ 3525  925  924  922 ] final  -23.58 input   59.99 | X-H torsion
[ 4531 1957 1955 1953 ] final    4.71 input   60.00 | X-H torsion

> <Gold.Protein.ActiveResidues>
 PHE267  PRO268  MET310  ASP335  TRP336  MET339  TYR343  THR360  PRO361  ILE363 
 PRO371  SER374  ILE375  ASN378  PHE381  TYR383  GLN384  PHE387  LEU408  LEU417 
 MET419  LEU428  TYR466  MET469  ASN472  ASP496  VAL498  LEU499  MET503  HIS524 
 TRP525 

> <Gold.Protein.RotatedAtoms>
   -3.7481  -29.5121  -30.1257 H   0  0  0  0  0  0  0  0  0  0  0  0  # atno 3525 bound_to 925 
  -11.4337  -23.5531  -31.4505 H   0  0  0  0  0  0  0  0  0  0  0  0  # atno 3677 bound_to 1070
   -9.4842  -36.3200  -33.7747 H   0  0  0  0  0  0  0  0  0  0  0  0  # atno 3781 bound_to 1176
  -16.0571  -28.1009  -37.1547 H   0  0  0  0  0  0  0  0  0  0  0  0  # atno 3847 bound_to 1247
  -13.1792  -25.2654  -39.0108 H   0  0  0  0  0  0  0  0  0  0  0  0  # atno 4507 bound_to 1931
   -2.9057  -32.5597  -36.6808 H   0  0  0  0  0  0  0  0  0  0  0  0  # atno 4531 bound_to 1957
   -9.8173  -37.0662  -32.3675 LP  0  0  0  0  0  0  0  0  0  0  0  0  # atno 5205 bound_to 1176
  -10.8131  -37.2508  -33.6485 LP  0  0  0  0  0  0  0  0  0  0  0  0  # atno 5206 bound_to 1176
  -14.8690  -27.2991  -37.9250 LP  0  0  0  0  0  0  0  0  0  0  0  0  # atno 5215 bound_to 1247
  -14.6322  -28.8370  -37.4296 LP  0  0  0  0  0  0  0  0  0  0  0  0  # atno 5216 bound_to 1247
  -13.5496  -24.5909  -40.4447 LP  0  0  0  0  0  0  0  0  0  0  0  0  # atno 5217 bound_to 1931
  -12.4652  -23.8729  -39.4572 LP  0  0  0  0  0  0  0  0  0  0  0  0  # atno 5218 bound_to 1931
  -11.6116  -22.1853  -30.5870 LP  0  0  0  0  0  0  0  0  0  0  0  0  # atno 5224 bound_to 1070
  -12.8124  -23.2913  -30.6266 LP  0  0  0  0  0  0  0  0  0  0  0  0  # atno 5225 bound_to 1070

$$$$
EZ_15|Lisa_paper2_min|sdf|3|dock9
  -GOLD-  10182016543D 1   1.00000     0.00000

 63 66  0  0  0  0  0  0  0  0  1 V2000
   -3.6540  -32.7706  -33.6473 C   0  0  0  0  0  0  0  0  0  0  0  0
   -4.4702  -33.1943  -32.6005 C   0  0  0  0  0  0  0  0  0  0  0  0
   -4.1476  -31.9145  -34.6360 C   0  0  0  0  0  0  0  0  0  0  0  0
   -5.8028  -32.7779  -32.5063 C   0  0  0  0  0  0  0  0  0  0  0  0
  -11.2969  -27.1098  -36.8059 C   0  0  0  0  0  0  0  0  0  0  0  0
  -16.2193  -23.0685  -38.7723 C   0  0  0  0  0  0  0  0  0  0  0  0
  -10.3696  -28.0297  -36.3164 C   0  0  0  0  0  0  0  0  0  0  0  0
  -17.5626  -22.8305  -39.0625 C   0  0  0  0  0  0  0  0  0  0  0  0
   -9.9524  -26.5977  -34.4158 C   0  0  0  0  0  0  0  0  0  0  0  0
  -16.8601  -24.2104  -36.7420 C   0  0  0  0  0  0  0  0  0  0  0  0
  -10.8795  -25.6777  -34.9054 C   0  0  0  0  0  0  0  0  0  0  0  0
   -5.4848  -31.4865  -34.5568 C   0  0  0  0  0  0  0  0  0  0  0  0
   -6.2899  -31.9191  -33.5023 C   0  0  0  0  0  0  0  0  0  0  0  0
  -15.8679  -23.7584  -37.6120 C   0  0  0  0  0  0  0  0  0  0  0  0
  -11.5517  -25.9337  -36.1005 C   0  0  0  0  0  0  0  0  0  0  0  0
   -9.6974  -27.7737  -35.1213 C   0  0  0  0  0  0  0  0  0  0  0  0
  -18.5548  -23.2825  -38.1924 C   0  0  0  0  0  0  0  0  0  0  0  0
  -18.2035  -23.9725  -37.0321 C   0  0  0  0  0  0  0  0  0  0  0  0
   -7.3820  -30.5795  -34.8816 C   0  0  0  0  0  0  0  0  0  0  0  0
   -8.6774  -31.4416  -32.9420 C   0  0  0  0  0  0  0  0  0  0  0  0
  -13.8669  -25.1052  -36.7717 C   0  0  0  0  0  0  0  0  0  0  0  0
  -11.1321  -24.4264  -34.1286 C   0  0  0  0  0  0  0  0  0  0  0  0
  -11.8936  -29.7674  -33.4280 C   0  0  0  0  0  0  0  0  0  0  0  0
  -11.4006  -32.0559  -32.5172 C   0  0  0  0  0  0  0  0  0  0  0  0
  -10.5183  -30.0228  -31.3357 C   0  0  0  0  0  0  0  0  0  0  0  0
   -8.4608  -29.7705  -35.4945 C   0  0  0  0  0  0  0  0  0  0  0  0
  -10.8730  -30.6332  -32.6908 C   0  0  0  0  0  0  0  0  0  0  0  0
   -6.1788  -30.6596  -35.3983 N   0  0  0  0  0  0  0  0  0  0  0  0
   -7.5243  -31.3205  -33.7255 N   0  0  0  0  0  0  0  0  0  0  0  0
  -14.5027  -24.0006  -37.3178 N   0  0  0  0  0  0  0  0  0  0  0  0
  -12.4824  -25.0238  -36.6082 N   0  0  0  0  0  0  0  0  0  0  0  0
   -8.6916  -32.1280  -31.9336 O   0  0  0  0  0  0  0  0  0  0  0  0
   -8.7882  -28.6766  -34.6407 O   0  0  0  0  0  0  0  0  0  0  0  0
   -9.6835  -30.7083  -33.4821 O   0  0  0  0  0  0  0  0  0  0  0  0
  -14.8197  -26.4687  -36.5004 S   0  0  0  0  0  0  0  0  0  0  0  0
  -20.2007  -22.9537  -38.6059 Cl  0  0  0  0  0  0  0  0  0  0  0  0
  -19.3866  -24.5554  -35.9143 Cl  0  0  0  0  0  0  0  0  0  0  0  0
   -2.6225  -33.1087  -33.6972 H   0  0  0  0  0  0  0  0  0  0  0  0
   -4.0656  -33.8607  -31.8427 H   0  0  0  0  0  0  0  0  0  0  0  0
   -3.5060  -31.5888  -35.4489 H   0  0  0  0  0  0  0  0  0  0  0  0
   -6.4167  -33.1219  -31.6823 H   0  0  0  0  0  0  0  0  0  0  0  0
  -11.8138  -27.3197  -37.7391 H   0  0  0  0  0  0  0  0  0  0  0  0
  -15.4541  -22.7134  -39.4578 H   0  0  0  0  0  0  0  0  0  0  0  0
  -10.1758  -28.9442  -36.8703 H   0  0  0  0  0  0  0  0  0  0  0  0
  -17.8181  -22.2925  -39.9720 H   0  0  0  0  0  0  0  0  0  0  0  0
   -9.4264  -26.4007  -33.4847 H   0  0  0  0  0  0  0  0  0  0  0  0
  -16.5797  -24.7470  -35.8377 H   0  0  0  0  0  0  0  0  0  0  0  0
  -11.4910  -23.6332  -34.7940 H   0  0  0  0  0  0  0  0  0  0  0  0
  -11.8812  -24.5919  -33.3449 H   0  0  0  0  0  0  0  0  0  0  0  0
  -10.2189  -24.0792  -33.6301 H   0  0  0  0  0  0  0  0  0  0  0  0
  -11.5458  -28.7307  -33.4995 H   0  0  0  0  0  0  0  0  0  0  0  0
  -12.0838  -30.1410  -34.4395 H   0  0  0  0  0  0  0  0  0  0  0  0
  -12.8455  -29.7373  -32.8854 H   0  0  0  0  0  0  0  0  0  0  0  0
  -10.9175  -32.5501  -31.6666 H   0  0  0  0  0  0  0  0  0  0  0  0
  -11.1738  -32.6665  -33.3986 H   0  0  0  0  0  0  0  0  0  0  0  0
  -12.4835  -32.0683  -32.3561 H   0  0  0  0  0  0  0  0  0  0  0  0
  -11.4223  -29.8116  -30.7531 H   0  0  0  0  0  0  0  0  0  0  0  0
   -9.8767  -30.6884  -30.7491 H   0  0  0  0  0  0  0  0  0  0  0  0
  -10.0017  -29.0645  -31.4631 H   0  0  0  0  0  0  0  0  0  0  0  0
   -8.1633  -29.3640  -36.4751 H   0  0  0  0  0  0  0  0  0  0  0  0
   -9.3735  -30.3665  -35.6584 H   0  0  0  0  0  0  0  0  0  0  0  0
  -13.8761  -23.2426  -37.5804 H   0  0  0  0  0  0  0  0  0  0  0  0
  -12.0773  -24.1785  -37.0239 H   0  0  0  0  0  0  0  0  0  0  0  0
  1  2  2  0  0  0  0
  1  3  1  0  0  0  0
  2  4  1  0  0  0  0
  3 12  2  0  0  0  0
  4 13  2  0  0  0  0
  5  7  1  0  0  0  0
  5 15  2  0  0  0  0
  6  8  1  0  0  0  0
  6 14  2  0  0  0  0
  7 16  2  0  0  0  0
  8 17  2  0  0  0  0
  9 11  2  0  0  0  0
  9 16  1  0  0  0  0
 10 14  1  0  0  0  0
 10 18  2  0  0  0  0
 11 15  1  0  0  0  0
 11 22  1  0  0  0  0
 12 13  1  0  0  0  0
 12 28  1  0  0  0  0
 13 29  1  0  0  0  0
 14 30  1  0  0  0  0
 15 31  1  0  0  0  0
 16 33  1  0  0  0  0
 17 18  1  0  0  0  0
 17 36  1  0  0  0  0
 18 37  1  0  0  0  0
 19 26  1  0  0  0  0
 19 28  2  0  0  0  0
 19 29  1  0  0  0  0
 20 29  1  0  0  0  0
 20 32  2  0  0  0  0
 20 34  1  0  0  0  0
 21 30  1  0  0  0  0
 21 31  1  0  0  0  0
 21 35  2  0  0  0  0
 23 27  1  0  0  0  0
 24 27  1  0  0  0  0
 25 27  1  0  0  0  0
 26 33  1  0  0  0  0
 27 34  1  0  0  0  0
  1 38  1  0  0  0  0
  2 39  1  0  0  0  0
  3 40  1  0  0  0  0
  4 41  1  0  0  0  0
  5 42  1  0  0  0  0
  6 43  1  0  0  0  0
  7 44  1  0  0  0  0
  8 45  1  0  0  0  0
  9 46  1  0  0  0  0
 10 47  1  0  0  0  0
 22 48  1  0  0  0  0
 22 49  1  0  0  0  0
 22 50  1  0  0  0  0
 23 51  1  0  0  0  0
 23 52  1  0  0  0  0
 23 53  1  0  0  0  0
 24 54  1  0  0  0  0
 24 55  1  0  0  0  0
 24 56  1  0  0  0  0
 25 57  1  0  0  0  0
 25 58  1  0  0  0  0
 25 59  1  0  0  0  0
 26 60  1  0  0  0  0
 26 61  1  0  0  0  0
 30 62  1  0  0  0  0
 31 63  1  0  0  0  0
M  END
> <Name>
EZ_15

> <SourceTag>
EZ_15

> <Activity_FLAP>
100

> <Activity_sEH>
100000

> <Gold.Version>
5.2

> <Gold.Id.Protein>
6HGV|6HGV_protein|mol2

> <Gold.Goldscore.Fitness>
73.8723

> <Gold.Goldscore.Internal.Vdw>
-14.7163

> <Gold.Goldscore.Internal.Torsion>
-10.7312

> <Gold.Goldscore.External.Vdw>
57.3416

> <Gold.Goldscore.Internal.HBond>
0.0000

> <Gold.Goldscore.External.HBond>
0.1506

> <Gold.Goldscore.Internal.Correction>
-20.3245

> <Gold.Goldscore.Hbonds>
donor molecule, donor type, donor heavy atom, donor atom, acceptor molecule, acceptor atom, score
      P1  H  1247  3847       L1    35  0.01
      L1  H    30    62       P1   854  0.02

> <Gold.Goldscore.Internal.Vdw.Weighted>
-14.7163

> <Gold.Goldscore.Internal.Torsion.Weighted>
-10.7312

> <Gold.Goldscore.External.Vdw.Weighted>
78.8447

> <Gold.Goldscore.Internal.HBond.Weighted>
0.0000

> <Gold.Goldscore.External.HBond.Weighted>
0.1506

> <Gold.Goldscore.Internal.Correction.Weighted>
-20.3245

> <Gold.Protein.RotatedTorsions>
[ 3781 1176 1175 1172 ] final   42.05 input   60.00 | X-H torsion
[ 3847 1247 1246 1244 ] final -135.51 input   60.00 | X-H torsion
[ 4507 1931 1930 1928 ] final  -45.83 input   60.00 | X-H torsion
[ 3677 1070 1069 1066 ] final -177.23 input   60.00 | X-H torsion
[ 3525  925  924  922 ] final   51.64 input   59.99 | X-H torsion
[ 4531 1957 1955 1953 ] final   74.64 input   60.00 | X-H torsion

> <Gold.Protein.ActiveResidues>
 PHE267  PRO268  MET310  ASP335  TRP336  MET339  TYR343  THR360  PRO361  ILE363 
 PRO371  SER374  ILE375  ASN378  PHE381  TYR383  GLN384  PHE387  LEU408  LEU417 
 MET419  LEU428  TYR466  MET469  ASN472  ASP496  VAL498  LEU499  MET503  HIS524 
 TRP525 

> <Gold.Protein.RotatedAtoms>
   -2.9301  -29.8006  -30.8697 H   0  0  0  0  0  0  0  0  0  0  0  0  # atno 3525 bound_to 925 
  -11.0902  -22.8052  -31.1935 H   0  0  0  0  0  0  0  0  0  0  0  0  # atno 3677 bound_to 1070
  -10.7476  -37.4410  -33.0322 H   0  0  0  0  0  0  0  0  0  0  0  0  # atno 3781 bound_to 1176
  -15.3147  -27.1977  -37.7916 H   0  0  0  0  0  0  0  0  0  0  0  0  # atno 3847 bound_to 1247
  -13.6302  -25.3203  -39.7135 H   0  0  0  0  0  0  0  0  0  0  0  0  # atno 4507 bound_to 1931
   -2.9583  -33.6314  -36.6893 H   0  0  0  0  0  0  0  0  0  0  0  0  # atno 4531 bound_to 1957
   -9.9863  -36.5172  -34.1345 LP  0  0  0  0  0  0  0  0  0  0  0  0  # atno 5205 bound_to 1176
   -9.3718  -36.6710  -32.6293 LP  0  0  0  0  0  0  0  0  0  0  0  0  # atno 5206 bound_to 1176
  -14.3657  -28.5129  -37.6582 LP  0  0  0  0  0  0  0  0  0  0  0  0  # atno 5215 bound_to 1247
  -15.8831  -28.5328  -37.0550 LP  0  0  0  0  0  0  0  0  0  0  0  0  # atno 5216 bound_to 1247
  -13.0254  -23.9411  -40.3301 LP  0  0  0  0  0  0  0  0  0  0  0  0  # atno 5217 bound_to 1931
  -12.5351  -24.4674  -38.8641 LP  0  0  0  0  0  0  0  0  0  0  0  0  # atno 5218 bound_to 1931
  -12.4078  -22.4105  -30.3239 LP  0  0  0  0  0  0  0  0  0  0  0  0  # atno 5224 bound_to 1070
  -12.3622  -23.8192  -31.1485 LP  0  0  0  0  0  0  0  0  0  0  0  0  # atno 5225 bound_to 1070

$$$$
EZ_15|Lisa_paper2_min|sdf|3|dock5
  -GOLD-  10182016523D 1   1.00000     0.00000

 63 66  0  0  0  0  0  0  0  0  1 V2000
  -11.0204  -34.8944  -31.9581 C   0  0  0  0  0  0  0  0  0  0  0  0
   -9.8957  -34.7110  -31.1565 C   0  0  0  0  0  0  0  0  0  0  0  0
  -11.1970  -34.1425  -33.1233 C   0  0  0  0  0  0  0  0  0  0  0  0
   -8.9123  -33.7734  -31.4910 C   0  0  0  0  0  0  0  0  0  0  0  0
  -12.1146  -28.4530  -34.8887 C   0  0  0  0  0  0  0  0  0  0  0  0
  -15.8470  -23.8608  -37.5968 C   0  0  0  0  0  0  0  0  0  0  0  0
  -10.9565  -29.2293  -34.8477 C   0  0  0  0  0  0  0  0  0  0  0  0
  -16.8608  -23.3471  -38.4052 C   0  0  0  0  0  0  0  0  0  0  0  0
   -9.6140  -27.2221  -34.7683 C   0  0  0  0  0  0  0  0  0  0  0  0
  -17.5034  -24.9160  -36.1898 C   0  0  0  0  0  0  0  0  0  0  0  0
  -10.7722  -26.4459  -34.8095 C   0  0  0  0  0  0  0  0  0  0  0  0
  -10.2185  -33.1955  -33.4742 C   0  0  0  0  0  0  0  0  0  0  0  0
   -9.0973  -33.0233  -32.6614 C   0  0  0  0  0  0  0  0  0  0  0  0
  -16.1682  -24.6452  -36.4889 C   0  0  0  0  0  0  0  0  0  0  0  0
  -12.0225  -27.0613  -34.8696 C   0  0  0  0  0  0  0  0  0  0  0  0
   -9.7062  -28.6139  -34.7875 C   0  0  0  0  0  0  0  0  0  0  0  0
  -18.1961  -23.6178  -38.1060 C   0  0  0  0  0  0  0  0  0  0  0  0
  -18.5174  -24.4023  -36.9983 C   0  0  0  0  0  0  0  0  0  0  0  0
   -9.0611  -31.6791  -34.4168 C   0  0  0  0  0  0  0  0  0  0  0  0
   -7.1285  -31.4983  -32.8625 C   0  0  0  0  0  0  0  0  0  0  0  0
  -14.0333  -25.9488  -35.9726 C   0  0  0  0  0  0  0  0  0  0  0  0
  -10.6430  -24.9573  -34.7879 C   0  0  0  0  0  0  0  0  0  0  0  0
   -4.5921  -31.6150  -34.1286 C   0  0  0  0  0  0  0  0  0  0  0  0
   -5.0203  -29.2287  -34.7857 C   0  0  0  0  0  0  0  0  0  0  0  0
   -4.8705  -29.8495  -32.3566 C   0  0  0  0  0  0  0  0  0  0  0  0
   -8.6294  -30.6475  -35.3880 C   0  0  0  0  0  0  0  0  0  0  0  0
   -5.2979  -30.3144  -33.7480 C   0  0  0  0  0  0  0  0  0  0  0  0
  -10.1771  -32.3550  -34.5537 N   0  0  0  0  0  0  0  0  0  0  0  0
   -8.3504  -32.0321  -33.2871 N   0  0  0  0  0  0  0  0  0  0  0  0
  -15.1376  -25.1675  -35.6680 N   0  0  0  0  0  0  0  0  0  0  0  0
  -13.1939  -26.3012  -34.9135 N   0  0  0  0  0  0  0  0  0  0  0  0
   -6.5858  -31.8865  -31.8412 O   0  0  0  0  0  0  0  0  0  0  0  0
   -8.5699  -29.3756  -34.7467 O   0  0  0  0  0  0  0  0  0  0  0  0
   -6.7091  -30.5487  -33.7365 O   0  0  0  0  0  0  0  0  0  0  0  0
  -13.7565  -26.2632  -37.6050 S   0  0  0  0  0  0  0  0  0  0  0  0
  -19.4064  -22.9502  -39.1441 Cl  0  0  0  0  0  0  0  0  0  0  0  0
  -20.1526  -24.7708  -36.5748 Cl  0  0  0  0  0  0  0  0  0  0  0  0
  -11.7694  -35.6293  -31.6757 H   0  0  0  0  0  0  0  0  0  0  0  0
   -9.7789  -35.3064  -30.2542 H   0  0  0  0  0  0  0  0  0  0  0  0
  -12.0761  -34.2905  -33.7428 H   0  0  0  0  0  0  0  0  0  0  0  0
   -8.0470  -33.6499  -30.8505 H   0  0  0  0  0  0  0  0  0  0  0  0
  -13.0836  -28.9439  -34.9366 H   0  0  0  0  0  0  0  0  0  0  0  0
  -14.8096  -23.6451  -37.8397 H   0  0  0  0  0  0  0  0  0  0  0  0
  -11.0349  -30.3130  -34.8624 H   0  0  0  0  0  0  0  0  0  0  0  0
  -16.5920  -22.7390  -39.2654 H   0  0  0  0  0  0  0  0  0  0  0  0
   -8.6379  -26.7453  -34.7219 H   0  0  0  0  0  0  0  0  0  0  0  0
  -17.7479  -25.5275  -35.3235 H   0  0  0  0  0  0  0  0  0  0  0  0
   -9.8615  -24.6346  -35.4851 H   0  0  0  0  0  0  0  0  0  0  0  0
  -11.5861  -24.4743  -35.0707 H   0  0  0  0  0  0  0  0  0  0  0  0
  -10.3876  -24.5970  -33.7840 H   0  0  0  0  0  0  0  0  0  0  0  0
   -3.5177  -31.4494  -34.2666 H   0  0  0  0  0  0  0  0  0  0  0  0
   -4.7296  -32.3871  -33.3645 H   0  0  0  0  0  0  0  0  0  0  0  0
   -4.9704  -32.0007  -35.0823 H   0  0  0  0  0  0  0  0  0  0  0  0
   -3.9673  -28.9257  -34.7611 H   0  0  0  0  0  0  0  0  0  0  0  0
   -5.6060  -28.3271  -34.5734 H   0  0  0  0  0  0  0  0  0  0  0  0
   -5.2601  -29.5674  -35.7988 H   0  0  0  0  0  0  0  0  0  0  0  0
   -4.6736  -30.7058  -31.7015 H   0  0  0  0  0  0  0  0  0  0  0  0
   -3.9679  -29.2310  -32.3977 H   0  0  0  0  0  0  0  0  0  0  0  0
   -5.6679  -29.2703  -31.8772 H   0  0  0  0  0  0  0  0  0  0  0  0
   -7.6337  -30.8681  -35.8067 H   0  0  0  0  0  0  0  0  0  0  0  0
   -9.3256  -30.5733  -36.2394 H   0  0  0  0  0  0  0  0  0  0  0  0
  -15.2038  -24.8976  -34.6888 H   0  0  0  0  0  0  0  0  0  0  0  0
  -13.4404  -25.8366  -34.0332 H   0  0  0  0  0  0  0  0  0  0  0  0
  1  2  2  0  0  0  0
  1  3  1  0  0  0  0
  2  4  1  0  0  0  0
  3 12  2  0  0  0  0
  4 13  2  0  0  0  0
  5  7  1  0  0  0  0
  5 15  2  0  0  0  0
  6  8  1  0  0  0  0
  6 14  2  0  0  0  0
  7 16  2  0  0  0  0
  8 17  2  0  0  0  0
  9 11  2  0  0  0  0
  9 16  1  0  0  0  0
 10 14  1  0  0  0  0
 10 18  2  0  0  0  0
 11 15  1  0  0  0  0
 11 22  1  0  0  0  0
 12 13  1  0  0  0  0
 12 28  1  0  0  0  0
 13 29  1  0  0  0  0
 14 30  1  0  0  0  0
 15 31  1  0  0  0  0
 16 33  1  0  0  0  0
 17 18  1  0  0  0  0
 17 36  1  0  0  0  0
 18 37  1  0  0  0  0
 19 26  1  0  0  0  0
 19 28  2  0  0  0  0
 19 29  1  0  0  0  0
 20 29  1  0  0  0  0
 20 32  2  0  0  0  0
 20 34  1  0  0  0  0
 21 30  1  0  0  0  0
 21 31  1  0  0  0  0
 21 35  2  0  0  0  0
 23 27  1  0  0  0  0
 24 27  1  0  0  0  0
 25 27  1  0  0  0  0
 26 33  1  0  0  0  0
 27 34  1  0  0  0  0
  1 38  1  0  0  0  0
  2 39  1  0  0  0  0
  3 40  1  0  0  0  0
  4 41  1  0  0  0  0
  5 42  1  0  0  0  0
  6 43  1  0  0  0  0
  7 44  1  0  0  0  0
  8 45  1  0  0  0  0
  9 46  1  0  0  0  0
 10 47  1  0  0  0  0
 22 48  1  0  0  0  0
 22 49  1  0  0  0  0
 22 50  1  0  0  0  0
 23 51  1  0  0  0  0
 23 52  1  0  0  0  0
 23 53  1  0  0  0  0
 24 54  1  0  0  0  0
 24 55  1  0  0  0  0
 24 56  1  0  0  0  0
 25 57  1  0  0  0  0
 25 58  1  0  0  0  0
 25 59  1  0  0  0  0
 26 60  1  0  0  0  0
 26 61  1  0  0  0  0
 30 62  1  0  0  0  0
 31 63  1  0  0  0  0
M  END
> <Name>
EZ_15

> <SourceTag>
EZ_15

> <Activity_FLAP>
100

> <Activity_sEH>
100000

> <Gold.Version>
5.2

> <Gold.Id.Protein>
6HGV|6HGV_protein|mol2

> <Gold.Goldscore.Fitness>
73.0517

> <Gold.Goldscore.Internal.Vdw>
-7.6095

> <Gold.Goldscore.Internal.Torsion>
-17.1365

> <Gold.Goldscore.External.Vdw>
56.1394

> <Gold.Goldscore.Internal.HBond>
0.0000

> <Gold.Goldscore.External.HBond>
0.2816

> <Gold.Goldscore.Internal.Correction>
-20.3245

> <Gold.Goldscore.Hbonds>
donor molecule, donor type, donor heavy atom, donor atom, acceptor molecule, acceptor atom, score
      P1  H  1931  4507       L1    35  0.28

> <Gold.Goldscore.Internal.Vdw.Weighted>
-7.6095

> <Gold.Goldscore.Internal.Torsion.Weighted>
-17.1365

> <Gold.Goldscore.External.Vdw.Weighted>
77.1917

> <Gold.Goldscore.Internal.HBond.Weighted>
0.0000

> <Gold.Goldscore.External.HBond.Weighted>
0.2816

> <Gold.Goldscore.Internal.Correction.Weighted>
-20.3245

> <Gold.Protein.RotatedTorsions>
[ 3781 1176 1175 1172 ] final -118.54 input   60.00 | X-H torsion
[ 3847 1247 1246 1244 ] final  -40.02 input   60.00 | X-H torsion
[ 4507 1931 1930 1928 ] final   26.97 input   60.00 | X-H torsion
[ 3677 1070 1069 1066 ] final  -98.78 input   60.00 | X-H torsion
[ 3525  925  924  922 ] final  -59.52 input   59.99 | X-H torsion
[ 4531 1957 1955 1953 ] final  -38.62 input   60.00 | X-H torsion

> <Gold.Protein.ActiveResidues>
 PHE267  PRO268  MET310  ASP335  TRP336  MET339  TYR343  THR360  PRO361  ILE363 
 PRO371  SER374  ILE375  ASN378  PHE381  TYR383  GLN384  PHE387  LEU408  LEU417 
 MET419  LEU428  TYR466  MET469  ASN472  ASP496  VAL498  LEU499  MET503  HIS524 
 TRP525 

> <Gold.Protein.RotatedAtoms>
   -3.7085  -29.5817  -29.5536 H   0  0  0  0  0  0  0  0  0  0  0  0  # atno 3525 bound_to 925 
  -11.7527  -23.7618  -31.4125 H   0  0  0  0  0  0  0  0  0  0  0  0  # atno 3677 bound_to 1070
   -9.4820  -36.3196  -33.7718 H   0  0  0  0  0  0  0  0  0  0  0  0  # atno 3781 bound_to 1176
  -16.0426  -28.1753  -37.1319 H   0  0  0  0  0  0  0  0  0  0  0  0  # atno 3847 bound_to 1247
  -12.9628  -25.0864  -38.8566 H   0  0  0  0  0  0  0  0  0  0  0  0  # atno 4507 bound_to 1931
   -2.3206  -32.2068  -36.7859 H   0  0  0  0  0  0  0  0  0  0  0  0  # atno 4531 bound_to 1957
   -9.8203  -37.0684  -32.3672 LP  0  0  0  0  0  0  0  0  0  0  0  0  # atno 5205 bound_to 1176
  -10.8123  -37.2491  -33.6517 LP  0  0  0  0  0  0  0  0  0  0  0  0  # atno 5206 bound_to 1176
  -14.9398  -27.2660  -37.9099 LP  0  0  0  0  0  0  0  0  0  0  0  0  # atno 5215 bound_to 1247
  -14.5760  -28.7952  -37.4677 LP  0  0  0  0  0  0  0  0  0  0  0  0  # atno 5216 bound_to 1247
  -13.6608  -24.8620  -40.3093 LP  0  0  0  0  0  0  0  0  0  0  0  0  # atno 5217 bound_to 1931
  -12.5719  -23.7822  -39.7479 LP  0  0  0  0  0  0  0  0  0  0  0  0  # atno 5218 bound_to 1931
  -11.3206  -22.3156  -30.8043 LP  0  0  0  0  0  0  0  0  0  0  0  0  # atno 5224 bound_to 1070
  -12.7821  -22.9509  -30.4476 LP  0  0  0  0  0  0  0  0  0  0  0  0  # atno 5225 bound_to 1070

$$$$
EZ_15|Lisa_paper2_min|sdf|3|dock10
  -GOLD-  10182016543D 1   1.00000     0.00000

 63 66  0  0  0  0  0  0  0  0  1 V2000
   -3.0230  -30.3914  -33.2986 C   0  0  0  0  0  0  0  0  0  0  0  0
   -3.4166  -31.6997  -33.5720 C   0  0  0  0  0  0  0  0  0  0  0  0
   -3.9515  -29.3466  -33.3232 C   0  0  0  0  0  0  0  0  0  0  0  0
   -4.7469  -32.0074  -33.8780 C   0  0  0  0  0  0  0  0  0  0  0  0
  -11.0783  -25.0007  -35.3673 C   0  0  0  0  0  0  0  0  0  0  0  0
  -16.2618  -24.1944  -39.1066 C   0  0  0  0  0  0  0  0  0  0  0  0
   -9.8813  -25.6334  -35.0317 C   0  0  0  0  0  0  0  0  0  0  0  0
  -17.3159  -24.1113  -40.0163 C   0  0  0  0  0  0  0  0  0  0  0  0
  -11.0694  -27.7134  -34.7163 C   0  0  0  0  0  0  0  0  0  0  0  0
  -17.8439  -24.3843  -37.2906 C   0  0  0  0  0  0  0  0  0  0  0  0
  -12.2664  -27.0805  -35.0517 C   0  0  0  0  0  0  0  0  0  0  0  0
   -5.2927  -29.6382  -33.6291 C   0  0  0  0  0  0  0  0  0  0  0  0
   -5.6718  -30.9534  -33.9005 C   0  0  0  0  0  0  0  0  0  0  0  0
  -16.5257  -24.3308  -37.7437 C   0  0  0  0  0  0  0  0  0  0  0  0
  -12.2708  -25.7242  -35.3772 C   0  0  0  0  0  0  0  0  0  0  0  0
   -9.8769  -26.9898  -34.7062 C   0  0  0  0  0  0  0  0  0  0  0  0
  -18.6341  -24.1647  -39.5631 C   0  0  0  0  0  0  0  0  0  0  0  0
  -18.8981  -24.3012  -38.2002 C   0  0  0  0  0  0  0  0  0  0  0  0
   -7.3817  -29.5569  -34.0252 C   0  0  0  0  0  0  0  0  0  0  0  0
   -7.8886  -31.9480  -34.4825 C   0  0  0  0  0  0  0  0  0  0  0  0
  -14.3450  -25.2467  -36.7798 C   0  0  0  0  0  0  0  0  0  0  0  0
  -13.5284  -27.8806  -35.0538 C   0  0  0  0  0  0  0  0  0  0  0  0
   -8.7969  -34.6788  -35.3712 C   0  0  0  0  0  0  0  0  0  0  0  0
   -6.9327  -35.3839  -33.8424 C   0  0  0  0  0  0  0  0  0  0  0  0
   -8.8046  -33.9615  -32.9587 C   0  0  0  0  0  0  0  0  0  0  0  0
   -8.7516  -29.0261  -34.2136 C   0  0  0  0  0  0  0  0  0  0  0  0
   -7.9351  -34.2804  -34.1740 C   0  0  0  0  0  0  0  0  0  0  0  0
   -6.3642  -28.7905  -33.7117 N   0  0  0  0  0  0  0  0  0  0  0  0
   -7.0362  -30.8871  -34.1569 N   0  0  0  0  0  0  0  0  0  0  0  0
  -15.4543  -24.4158  -36.8198 N   0  0  0  0  0  0  0  0  0  0  0  0
  -13.4596  -25.0720  -35.7140 N   0  0  0  0  0  0  0  0  0  0  0  0
   -9.0776  -31.7682  -34.6876 O   0  0  0  0  0  0  0  0  0  0  0  0
   -8.7024  -27.6107  -34.3776 O   0  0  0  0  0  0  0  0  0  0  0  0
   -7.1886  -33.1100  -34.5199 O   0  0  0  0  0  0  0  0  0  0  0  0
  -14.1216  -26.2737  -38.0973 S   0  0  0  0  0  0  0  0  0  0  0  0
  -19.8961  -24.0536  -40.7392 Cl  0  0  0  0  0  0  0  0  0  0  0  0
  -20.5094  -24.3712  -37.5775 Cl  0  0  0  0  0  0  0  0  0  0  0  0
   -1.9835  -30.1793  -33.0638 H   0  0  0  0  0  0  0  0  0  0  0  0
   -2.6776  -32.4968  -33.5479 H   0  0  0  0  0  0  0  0  0  0  0  0
   -3.6375  -28.3296  -33.1095 H   0  0  0  0  0  0  0  0  0  0  0  0
   -5.0273  -33.0331  -34.0870 H   0  0  0  0  0  0  0  0  0  0  0  0
  -11.0695  -23.9427  -35.6181 H   0  0  0  0  0  0  0  0  0  0  0  0
  -15.2384  -24.1533  -39.4704 H   0  0  0  0  0  0  0  0  0  0  0  0
   -8.9556  -25.0644  -35.0263 H   0  0  0  0  0  0  0  0  0  0  0  0
  -17.0916  -24.0067  -41.0749 H   0  0  0  0  0  0  0  0  0  0  0  0
  -11.0627  -28.7705  -34.4616 H   0  0  0  0  0  0  0  0  0  0  0  0
  -18.0435  -24.4895  -36.2260 H   0  0  0  0  0  0  0  0  0  0  0  0
  -14.3831  -27.2410  -34.8063 H   0  0  0  0  0  0  0  0  0  0  0  0
  -13.7054  -28.3376  -36.0350 H   0  0  0  0  0  0  0  0  0  0  0  0
  -13.4796  -28.6981  -34.3243 H   0  0  0  0  0  0  0  0  0  0  0  0
   -9.1586  -35.7078  -35.2656 H   0  0  0  0  0  0  0  0  0  0  0  0
   -9.6612  -34.0163  -35.4844 H   0  0  0  0  0  0  0  0  0  0  0  0
   -8.2145  -34.6496  -36.2993 H   0  0  0  0  0  0  0  0  0  0  0  0
   -7.4494  -36.3060  -33.5525 H   0  0  0  0  0  0  0  0  0  0  0  0
   -6.3071  -35.0992  -32.9888 H   0  0  0  0  0  0  0  0  0  0  0  0
   -6.2794  -35.6052  -34.6926 H   0  0  0  0  0  0  0  0  0  0  0  0
   -9.1151  -34.8802  -32.4481 H   0  0  0  0  0  0  0  0  0  0  0  0
   -8.2754  -33.3282  -32.2393 H   0  0  0  0  0  0  0  0  0  0  0  0
   -9.7253  -33.4499  -33.2617 H   0  0  0  0  0  0  0  0  0  0  0  0
   -9.2414  -29.4581  -35.1018 H   0  0  0  0  0  0  0  0  0  0  0  0
   -9.3980  -29.2518  -33.3497 H   0  0  0  0  0  0  0  0  0  0  0  0
  -15.4904  -23.7272  -36.0710 H   0  0  0  0  0  0  0  0  0  0  0  0
  -13.6837  -24.2563  -35.1345 H   0  0  0  0  0  0  0  0  0  0  0  0
  1  2  2  0  0  0  0
  1  3  1  0  0  0  0
  2  4  1  0  0  0  0
  3 12  2  0  0  0  0
  4 13  2  0  0  0  0
  5  7  1  0  0  0  0
  5 15  2  0  0  0  0
  6  8  1  0  0  0  0
  6 14  2  0  0  0  0
  7 16  2  0  0  0  0
  8 17  2  0  0  0  0
  9 11  2  0  0  0  0
  9 16  1  0  0  0  0
 10 14  1  0  0  0  0
 10 18  2  0  0  0  0
 11 15  1  0  0  0  0
 11 22  1  0  0  0  0
 12 13  1  0  0  0  0
 12 28  1  0  0  0  0
 13 29  1  0  0  0  0
 14 30  1  0  0  0  0
 15 31  1  0  0  0  0
 16 33  1  0  0  0  0
 17 18  1  0  0  0  0
 17 36  1  0  0  0  0
 18 37  1  0  0  0  0
 19 26  1  0  0  0  0
 19 28  2  0  0  0  0
 19 29  1  0  0  0  0
 20 29  1  0  0  0  0
 20 32  2  0  0  0  0
 20 34  1  0  0  0  0
 21 30  1  0  0  0  0
 21 31  1  0  0  0  0
 21 35  2  0  0  0  0
 23 27  1  0  0  0  0
 24 27  1  0  0  0  0
 25 27  1  0  0  0  0
 26 33  1  0  0  0  0
 27 34  1  0  0  0  0
  1 38  1  0  0  0  0
  2 39  1  0  0  0  0
  3 40  1  0  0  0  0
  4 41  1  0  0  0  0
  5 42  1  0  0  0  0
  6 43  1  0  0  0  0
  7 44  1  0  0  0  0
  8 45  1  0  0  0  0
  9 46  1  0  0  0  0
 10 47  1  0  0  0  0
 22 48  1  0  0  0  0
 22 49  1  0  0  0  0
 22 50  1  0  0  0  0
 23 51  1  0  0  0  0
 23 52  1  0  0  0  0
 23 53  1  0  0  0  0
 24 54  1  0  0  0  0
 24 55  1  0  0  0  0
 24 56  1  0  0  0  0
 25 57  1  0  0  0  0
 25 58  1  0  0  0  0
 25 59  1  0  0  0  0
 26 60  1  0  0  0  0
 26 61  1  0  0  0  0
 30 62  1  0  0  0  0
 31 63  1  0  0  0  0
M  END
> <Name>
EZ_15

> <SourceTag>
EZ_15

> <Activity_FLAP>
100

> <Activity_sEH>
100000

> <Gold.Version>
5.2

> <Gold.Id.Protein>
6HGV|6HGV_protein|mol2

> <Gold.Goldscore.Fitness>
69.7894

> <Gold.Goldscore.Internal.Vdw>
-12.4637

> <Gold.Goldscore.Internal.Torsion>
-14.9506

> <Gold.Goldscore.External.Vdw>
54.7405

> <Gold.Goldscore.Internal.HBond>
0.0000

> <Gold.Goldscore.External.HBond>
1.6111

> <Gold.Goldscore.Internal.Correction>
-20.3245

> <Gold.Goldscore.Hbonds>
donor molecule, donor type, donor heavy atom, donor atom, acceptor molecule, acceptor atom, score
      L1  H    30    62       P1   853  0.02
      L1  H    31    63       P1   853  0.25

> <Gold.Goldscore.Internal.Vdw.Weighted>
-12.4637

> <Gold.Goldscore.Internal.Torsion.Weighted>
-14.9506

> <Gold.Goldscore.External.Vdw.Weighted>
75.2682

> <Gold.Goldscore.Internal.HBond.Weighted>
0.0000

> <Gold.Goldscore.External.HBond.Weighted>
1.6111

> <Gold.Goldscore.Internal.Correction.Weighted>
-20.3245

> <Gold.Protein.RotatedTorsions>
[ 3781 1176 1175 1172 ] final   68.78 input   60.00 | X-H torsion
[ 3847 1247 1246 1244 ] final  -33.76 input   60.00 | X-H torsion
[ 4507 1931 1930 1928 ] final  111.07 input   60.00 | X-H torsion
[ 3677 1070 1069 1066 ] final -117.16 input   60.00 | X-H torsion
[ 3525  925  924  922 ] final  -20.75 input   59.99 | X-H torsion
[ 4531 1957 1955 1953 ] final  143.93 input   60.00 | X-H torsion

> <Gold.Protein.ActiveResidues>
 PHE267  PRO268  MET310  ASP335  TRP336  MET339  TYR343  THR360  PRO361  ILE363 
 PRO371  SER374  ILE375  ASN378  PHE381  TYR383  GLN384  PHE387  LEU408  LEU417 
 MET419  LEU428  TYR466  MET469  ASN472  ASP496  VAL498  LEU499  MET503  HIS524 
 TRP525 

> <Gold.Protein.RotatedAtoms>
   -3.7371  -29.5128  -30.1706 H   0  0  0  0  0  0  0  0  0  0  0  0  # atno 3525 bound_to 925 
  -11.4987  -23.6087  -31.4502 H   0  0  0  0  0  0  0  0  0  0  0  0  # atno 3677 bound_to 1070
  -10.5131  -37.4206  -32.6690 H   0  0  0  0  0  0  0  0  0  0  0  0  # atno 3781 bound_to 1176
  -16.0148  -28.2702  -37.1065 H   0  0  0  0  0  0  0  0  0  0  0  0  # atno 3847 bound_to 1247
  -12.4325  -24.0153  -39.2364 H   0  0  0  0  0  0  0  0  0  0  0  0  # atno 4507 bound_to 1931
   -1.9973  -34.0484  -36.8792 H   0  0  0  0  0  0  0  0  0  0  0  0  # atno 4531 bound_to 1957
  -10.3506  -36.7561  -34.1455 LP  0  0  0  0  0  0  0  0  0  0  0  0  # atno 5205 bound_to 1176
   -9.2436  -36.4526  -32.9840 LP  0  0  0  0  0  0  0  0  0  0  0  0  # atno 5206 bound_to 1176
  -15.0339  -27.2318  -37.8860 LP  0  0  0  0  0  0  0  0  0  0  0  0  # atno 5215 bound_to 1247
  -14.5099  -28.7338  -37.5171 LP  0  0  0  0  0  0  0  0  0  0  0  0  # atno 5216 bound_to 1247
  -13.3517  -25.3572  -39.1893 LP  0  0  0  0  0  0  0  0  0  0  0  0  # atno 5217 bound_to 1931
  -13.4151  -24.3657  -40.4853 LP  0  0  0  0  0  0  0  0  0  0  0  0  # atno 5218 bound_to 1931
  -11.5402  -22.2027  -30.6320 LP  0  0  0  0  0  0  0  0  0  0  0  0  # atno 5224 bound_to 1070
  -12.8183  -23.2179  -30.5818 LP  0  0  0  0  0  0  0  0  0  0  0  0  # atno 5225 bound_to 1070

$$$$
EZ_17|Lisa_paper2_min|sdf|4|dock2
  -GOLD-  10182016543D 1   1.00000     0.00000

 48 51  0  0  0  0  0  0  0  0  1 V2000
  -20.6805  -24.1159  -36.1642 C   0  0  0  0  0  0  0  0  0  0  0  0
  -20.3852  -23.3220  -37.2749 C   0  0  0  0  0  0  0  0  0  0  0  0
  -19.7124  -24.9562  -35.6002 C   0  0  0  0  0  0  0  0  0  0  0  0
  -19.1155  -23.3379  -37.8615 C   0  0  0  0  0  0  0  0  0  0  0  0
  -10.9810  -26.7967  -36.3754 C   0  0  0  0  0  0  0  0  0  0  0  0
   -6.5133  -30.4818  -35.4795 C   0  0  0  0  0  0  0  0  0  0  0  0
  -12.2687  -26.3316  -36.6417 C   0  0  0  0  0  0  0  0  0  0  0  0
   -5.6946  -31.6083  -35.4010 C   0  0  0  0  0  0  0  0  0  0  0  0
  -12.2001  -24.9916  -34.6325 C   0  0  0  0  0  0  0  0  0  0  0  0
   -5.2838  -29.4617  -33.6672 C   0  0  0  0  0  0  0  0  0  0  0  0
  -10.9123  -25.4569  -34.3661 C   0  0  0  0  0  0  0  0  0  0  0  0
  -18.4314  -24.9848  -36.1768 C   0  0  0  0  0  0  0  0  0  0  0  0
  -18.1672  -24.1822  -37.2831 C   0  0  0  0  0  0  0  0  0  0  0  0
   -6.3080  -29.4084  -34.6127 C   0  0  0  0  0  0  0  0  0  0  0  0
  -10.3028  -26.3594  -35.2377 C   0  0  0  0  0  0  0  0  0  0  0  0
  -12.8783  -25.4289  -35.7703 C   0  0  0  0  0  0  0  0  0  0  0  0
   -4.6704  -31.6616  -34.4555 C   0  0  0  0  0  0  0  0  0  0  0  0
   -4.4651  -30.5883  -33.5886 C   0  0  0  0  0  0  0  0  0  0  0  0
  -16.3929  -25.3625  -36.6884 C   0  0  0  0  0  0  0  0  0  0  0  0
   -8.4874  -28.1317  -34.9912 C   0  0  0  0  0  0  0  0  0  0  0  0
  -10.2101  -24.9713  -33.1398 C   0  0  0  0  0  0  0  0  0  0  0  0
  -15.0049  -25.8577  -36.7447 C   0  0  0  0  0  0  0  0  0  0  0  0
  -17.3175  -25.7106  -35.8218 N   0  0  0  0  0  0  0  0  0  0  0  0
  -16.8563  -24.4440  -37.5888 N   0  0  0  0  0  0  0  0  0  0  0  0
   -7.1397  -28.2637  -34.6933 N   0  0  0  0  0  0  0  0  0  0  0  0
   -9.0145  -26.8384  -34.9872 N   0  0  0  0  0  0  0  0  0  0  0  0
  -14.1407  -24.9724  -36.0317 O   0  0  0  0  0  0  0  0  0  0  0  0
   -9.3625  -29.5592  -35.1843 S   0  0  0  0  0  0  0  0  0  0  0  0
   -3.6922  -33.0859  -34.4058 Cl  0  0  0  0  0  0  0  0  0  0  0  0
   -3.2145  -30.5959  -32.3948 Cl  0  0  0  0  0  0  0  0  0  0  0  0
  -21.6766  -24.0813  -35.7302 H   0  0  0  0  0  0  0  0  0  0  0  0
  -21.1570  -22.6801  -37.6928 H   0  0  0  0  0  0  0  0  0  0  0  0
  -19.9519  -25.5682  -34.7365 H   0  0  0  0  0  0  0  0  0  0  0  0
  -18.8843  -22.7216  -38.7228 H   0  0  0  0  0  0  0  0  0  0  0  0
  -10.5164  -27.5009  -37.0615 H   0  0  0  0  0  0  0  0  0  0  0  0
   -7.3076  -30.4498  -36.2210 H   0  0  0  0  0  0  0  0  0  0  0  0
  -12.7916  -26.6756  -37.5299 H   0  0  0  0  0  0  0  0  0  0  0  0
   -5.8682  -32.4348  -36.0856 H   0  0  0  0  0  0  0  0  0  0  0  0
  -12.6782  -24.2884  -33.9548 H   0  0  0  0  0  0  0  0  0  0  0  0
   -5.1293  -28.6218  -32.9927 H   0  0  0  0  0  0  0  0  0  0  0  0
  -10.9003  -24.3995  -32.5092 H   0  0  0  0  0  0  0  0  0  0  0  0
   -9.8125  -25.8088  -32.5539 H   0  0  0  0  0  0  0  0  0  0  0  0
   -9.3592  -24.3297  -33.3991 H   0  0  0  0  0  0  0  0  0  0  0  0
  -14.9021  -26.8636  -36.2996 H   0  0  0  0  0  0  0  0  0  0  0  0
  -14.6348  -25.9334  -37.7828 H   0  0  0  0  0  0  0  0  0  0  0  0
  -16.3288  -24.0293  -38.3457 H   0  0  0  0  0  0  0  0  0  0  0  0
   -6.6727  -27.3888  -34.4639 H   0  0  0  0  0  0  0  0  0  0  0  0
   -8.3503  -26.1345  -34.6481 H   0  0  0  0  0  0  0  0  0  0  0  0
  1  2  2  0  0  0  0
  1  3  1  0  0  0  0
  2  4  1  0  0  0  0
  3 12  2  0  0  0  0
  4 13  2  0  0  0  0
  5  7  1  0  0  0  0
  5 15  2  0  0  0  0
  6  8  1  0  0  0  0
  6 14  2  0  0  0  0
  7 16  2  0  0  0  0
  8 17  2  0  0  0  0
  9 11  2  0  0  0  0
  9 16  1  0  0  0  0
 10 14  1  0  0  0  0
 10 18  2  0  0  0  0
 11 15  1  0  0  0  0
 11 21  1  0  0  0  0
 12 13  1  0  0  0  0
 12 23  1  0  0  0  0
 13 24  1  0  0  0  0
 14 25  1  0  0  0  0
 15 26  1  0  0  0  0
 16 27  1  0  0  0  0
 17 18  1  0  0  0  0
 17 29  1  0  0  0  0
 18 30  1  0  0  0  0
 19 22  1  0  0  0  0
 19 23  2  0  0  0  0
 19 24  1  0  0  0  0
 20 25  1  0  0  0  0
 20 26  1  0  0  0  0
 20 28  2  0  0  0  0
 22 27  1  0  0  0  0
  1 31  1  0  0  0  0
  2 32  1  0  0  0  0
  3 33  1  0  0  0  0
  4 34  1  0  0  0  0
  5 35  1  0  0  0  0
  6 36  1  0  0  0  0
  7 37  1  0  0  0  0
  8 38  1  0  0  0  0
  9 39  1  0  0  0  0
 10 40  1  0  0  0  0
 21 41  1  0  0  0  0
 21 42  1  0  0  0  0
 21 43  1  0  0  0  0
 22 44  1  0  0  0  0
 22 45  1  0  0  0  0
 24 46  1  0  0  0  0
 25 47  1  0  0  0  0
 26 48  1  0  0  0  0
M  END
> <Name>
EZ_17

> <SourceTag>
EZ_17

> <Activity_sEH>
223.4

> <Activity_FLAP>
0.6

> <Gold.Version>
5.2

> <Gold.Id.Protein>
6HGV|6HGV_protein|mol2

> <Gold.Goldscore.Fitness>
84.9034

> <Gold.Goldscore.Internal.Vdw>
-8.0983

> <Gold.Goldscore.Internal.Torsion>
-7.1920

> <Gold.Goldscore.External.Vdw>
63.9293

> <Gold.Goldscore.Internal.HBond>
0.0000

> <Gold.Goldscore.External.HBond>
0.0352

> <Gold.Goldscore.Internal.Correction>
-12.2557

> <Gold.Goldscore.Hbonds>
donor molecule, donor type, donor heavy atom, donor atom, acceptor molecule, acceptor atom, score
      P1  H  1256  3854       L1    28  0.04

> <Gold.Goldscore.Internal.Vdw.Weighted>
-8.0983

> <Gold.Goldscore.Internal.Torsion.Weighted>
-7.1920

> <Gold.Goldscore.External.Vdw.Weighted>
87.9028

> <Gold.Goldscore.Internal.HBond.Weighted>
0.0000

> <Gold.Goldscore.External.HBond.Weighted>
0.0352

> <Gold.Goldscore.Internal.Correction.Weighted>
-12.2557

> <Gold.Protein.RotatedTorsions>
[ 3781 1176 1175 1172 ] final  157.90 input   60.00 | X-H torsion
[ 3847 1247 1246 1244 ] final   39.80 input   60.00 | X-H torsion
[ 4507 1931 1930 1928 ] final   75.77 input   60.00 | X-H torsion
[ 3677 1070 1069 1066 ] final  -11.39 input   60.00 | X-H torsion
[ 3525  925  924  922 ] final  -73.64 input   59.99 | X-H torsion
[ 4531 1957 1955 1953 ] final  -36.75 input   60.00 | X-H torsion

> <Gold.Protein.ActiveResidues>
 PHE267  PRO268  MET310  ASP335  TRP336  MET339  TYR343  THR360  PRO361  ILE363 
 PRO371  SER374  ILE375  ASN378  PHE381  TYR383  GLN384  PHE387  LEU408  LEU417 
 MET419  LEU428  TYR466  MET469  ASN472  ASP496  VAL498  LEU499  MET503  HIS524 
 TRP525 

> <Gold.Protein.RotatedAtoms>
   -3.6052  -29.6446  -29.3579 H   0  0  0  0  0  0  0  0  0  0  0  0  # atno 3525 bound_to 925 
  -12.7787  -23.4099  -30.7076 H   0  0  0  0  0  0  0  0  0  0  0  0  # atno 3677 bound_to 1070
   -9.4088  -36.7133  -32.5903 H   0  0  0  0  0  0  0  0  0  0  0  0  # atno 3781 bound_to 1176
  -15.1343  -28.9594  -37.1884 H   0  0  0  0  0  0  0  0  0  0  0  0  # atno 3847 bound_to 1247
  -12.5276  -24.4474  -38.8807 H   0  0  0  0  0  0  0  0  0  0  0  0  # atno 4507 bound_to 1931
   -2.3501  -32.2121  -36.7804 H   0  0  0  0  0  0  0  0  0  0  0  0  # atno 4531 bound_to 1957
  -10.7777  -37.4351  -33.0933 LP  0  0  0  0  0  0  0  0  0  0  0  0  # atno 5205 bound_to 1176
   -9.9287  -36.4859  -34.1154 LP  0  0  0  0  0  0  0  0  0  0  0  0  # atno 5206 bound_to 1176
  -15.9804  -27.5827  -37.3803 LP  0  0  0  0  0  0  0  0  0  0  0  0  # atno 5215 bound_to 1247
  -14.4501  -27.6888  -37.9403 LP  0  0  0  0  0  0  0  0  0  0  0  0  # atno 5216 bound_to 1247
  -13.6279  -25.3325  -39.6894 LP  0  0  0  0  0  0  0  0  0  0  0  0  # atno 5217 bound_to 1931
  -13.0431  -23.9552  -40.3435 LP  0  0  0  0  0  0  0  0  0  0  0  0  # atno 5218 bound_to 1931
  -11.3290  -23.4493  -31.4458 LP  0  0  0  0  0  0  0  0  0  0  0  0  # atno 5224 bound_to 1070
  -11.7405  -22.1716  -30.5158 LP  0  0  0  0  0  0  0  0  0  0  0  0  # atno 5225 bound_to 1070

$$$$
EZ_17|Lisa_paper2_min|sdf|4|dock5
  -GOLD-  10182016553D 1   1.00000     0.00000

 48 51  0  0  0  0  0  0  0  0  1 V2000
   -2.4206  -31.2617  -32.6444 C   0  0  0  0  0  0  0  0  0  0  0  0
   -2.1267  -29.8966  -32.6109 C   0  0  0  0  0  0  0  0  0  0  0  0
   -3.6380  -31.7252  -33.1591 C   0  0  0  0  0  0  0  0  0  0  0  0
   -3.0353  -28.9466  -33.0890 C   0  0  0  0  0  0  0  0  0  0  0  0
  -10.8904  -27.4348  -36.5084 C   0  0  0  0  0  0  0  0  0  0  0  0
  -16.2364  -23.9668  -38.6160 C   0  0  0  0  0  0  0  0  0  0  0  0
   -9.8939  -28.2242  -35.9346 C   0  0  0  0  0  0  0  0  0  0  0  0
  -17.6075  -23.8009  -38.8111 C   0  0  0  0  0  0  0  0  0  0  0  0
   -9.6366  -26.6075  -34.1577 C   0  0  0  0  0  0  0  0  0  0  0  0
  -16.6513  -24.7545  -36.3700 C   0  0  0  0  0  0  0  0  0  0  0  0
  -10.6332  -25.8181  -34.7316 C   0  0  0  0  0  0  0  0  0  0  0  0
   -4.5626  -30.7846  -33.6437 C   0  0  0  0  0  0  0  0  0  0  0  0
   -4.2411  -29.4310  -33.5970 C   0  0  0  0  0  0  0  0  0  0  0  0
  -15.7582  -24.4437  -37.3954 C   0  0  0  0  0  0  0  0  0  0  0  0
  -11.2601  -26.2318  -35.9070 C   0  0  0  0  0  0  0  0  0  0  0  0
   -9.2669  -27.8105  -34.7591 C   0  0  0  0  0  0  0  0  0  0  0  0
  -18.5006  -24.1118  -37.7857 C   0  0  0  0  0  0  0  0  0  0  0  0
  -18.0224  -24.5885  -36.5651 C   0  0  0  0  0  0  0  0  0  0  0  0
   -6.2441  -29.7646  -34.4752 C   0  0  0  0  0  0  0  0  0  0  0  0
  -13.6505  -25.5733  -36.4982 C   0  0  0  0  0  0  0  0  0  0  0  0
  -11.0084  -24.5343  -34.0654 C   0  0  0  0  0  0  0  0  0  0  0  0
   -7.5398  -29.4125  -35.0854 C   0  0  0  0  0  0  0  0  0  0  0  0
   -5.8104  -30.9724  -34.1924 N   0  0  0  0  0  0  0  0  0  0  0  0
   -5.3345  -28.8023  -34.1353 N   0  0  0  0  0  0  0  0  0  0  0  0
  -14.3649  -24.6128  -37.1979 N   0  0  0  0  0  0  0  0  0  0  0  0
  -12.2590  -25.4542  -36.4981 N   0  0  0  0  0  0  0  0  0  0  0  0
   -8.2902  -28.5848  -34.1962 O   0  0  0  0  0  0  0  0  0  0  0  0
  -14.5371  -26.8511  -35.8486 S   0  0  0  0  0  0  0  0  0  0  0  0
  -20.1869  -23.8817  -38.0878 Cl  0  0  0  0  0  0  0  0  0  0  0  0
  -19.0786  -24.9887  -35.2561 Cl  0  0  0  0  0  0  0  0  0  0  0  0
   -1.6938  -31.9760  -32.2658 H   0  0  0  0  0  0  0  0  0  0  0  0
   -1.1743  -29.5653  -32.2043 H   0  0  0  0  0  0  0  0  0  0  0  0
   -3.8560  -32.7881  -33.1815 H   0  0  0  0  0  0  0  0  0  0  0  0
   -2.8084  -27.8869  -33.0647 H   0  0  0  0  0  0  0  0  0  0  0  0
  -11.3713  -27.7672  -37.4253 H   0  0  0  0  0  0  0  0  0  0  0  0
  -15.5491  -23.7232  -39.4222 H   0  0  0  0  0  0  0  0  0  0  0  0
   -9.6106  -29.1605  -36.4076 H   0  0  0  0  0  0  0  0  0  0  0  0
  -17.9623  -23.4297  -39.7694 H   0  0  0  0  0  0  0  0  0  0  0  0
   -9.1457  -26.2875  -33.2417 H   0  0  0  0  0  0  0  0  0  0  0  0
  -16.2722  -25.1248  -35.4196 H   0  0  0  0  0  0  0  0  0  0  0  0
  -11.4711  -23.8530  -34.7884 H   0  0  0  0  0  0  0  0  0  0  0  0
  -11.7150  -24.7064  -33.2445 H   0  0  0  0  0  0  0  0  0  0  0  0
  -10.1292  -24.0415  -33.6326 H   0  0  0  0  0  0  0  0  0  0  0  0
   -7.4180  -28.8649  -36.0371 H   0  0  0  0  0  0  0  0  0  0  0  0
   -8.1465  -30.3073  -35.3124 H   0  0  0  0  0  0  0  0  0  0  0  0
   -5.4449  -27.8044  -34.2582 H   0  0  0  0  0  0  0  0  0  0  0  0
  -13.7867  -23.9260  -37.6776 H   0  0  0  0  0  0  0  0  0  0  0  0
  -11.9186  -24.7154  -37.1224 H   0  0  0  0  0  0  0  0  0  0  0  0
  1  2  2  0  0  0  0
  1  3  1  0  0  0  0
  2  4  1  0  0  0  0
  3 12  2  0  0  0  0
  4 13  2  0  0  0  0
  5  7  1  0  0  0  0
  5 15  2  0  0  0  0
  6  8  1  0  0  0  0
  6 14  2  0  0  0  0
  7 16  2  0  0  0  0
  8 17  2  0  0  0  0
  9 11  2  0  0  0  0
  9 16  1  0  0  0  0
 10 14  1  0  0  0  0
 10 18  2  0  0  0  0
 11 15  1  0  0  0  0
 11 21  1  0  0  0  0
 12 13  1  0  0  0  0
 12 23  1  0  0  0  0
 13 24  1  0  0  0  0
 14 25  1  0  0  0  0
 15 26  1  0  0  0  0
 16 27  1  0  0  0  0
 17 18  1  0  0  0  0
 17 29  1  0  0  0  0
 18 30  1  0  0  0  0
 19 22  1  0  0  0  0
 19 23  2  0  0  0  0
 19 24  1  0  0  0  0
 20 25  1  0  0  0  0
 20 26  1  0  0  0  0
 20 28  2  0  0  0  0
 22 27  1  0  0  0  0
  1 31  1  0  0  0  0
  2 32  1  0  0  0  0
  3 33  1  0  0  0  0
  4 34  1  0  0  0  0
  5 35  1  0  0  0  0
  6 36  1  0  0  0  0
  7 37  1  0  0  0  0
  8 38  1  0  0  0  0
  9 39  1  0  0  0  0
 10 40  1  0  0  0  0
 21 41  1  0  0  0  0
 21 42  1  0  0  0  0
 21 43  1  0  0  0  0
 22 44  1  0  0  0  0
 22 45  1  0  0  0  0
 24 46  1  0  0  0  0
 25 47  1  0  0  0  0
 26 48  1  0  0  0  0
M  END
> <Name>
EZ_17

> <SourceTag>
EZ_17

> <Activity_sEH>
223.4

> <Activity_FLAP>
0.6

> <Gold.Version>
5.2

> <Gold.Id.Protein>
6HGV|6HGV_protein|mol2

> <Gold.Goldscore.Fitness>
82.8154

> <Gold.Goldscore.Internal.Vdw>
-4.6620

> <Gold.Goldscore.Internal.Torsion>
-10.9835

> <Gold.Goldscore.External.Vdw>
62.6947

> <Gold.Goldscore.Internal.HBond>
0.0000

> <Gold.Goldscore.External.HBond>
0.0000

> <Gold.Goldscore.Internal.Correction>
-12.2557

> <Gold.Goldscore.Internal.Vdw.Weighted>
-4.6620

> <Gold.Goldscore.Internal.Torsion.Weighted>
-10.9835

> <Gold.Goldscore.External.Vdw.Weighted>
86.2052

> <Gold.Goldscore.Internal.HBond.Weighted>
0.0000

> <Gold.Goldscore.External.HBond.Weighted>
0.0000

> <Gold.Goldscore.Internal.Correction.Weighted>
-12.2557

> <Gold.Protein.RotatedTorsions>
[ 3781 1176 1175 1172 ] final    1.11 input   60.00 | X-H torsion
[ 3847 1247 1246 1244 ] final   64.74 input   60.00 | X-H torsion
[ 4507 1931 1930 1928 ] final  -32.23 input   60.00 | X-H torsion
[ 3677 1070 1069 1066 ] final -172.39 input   60.00 | X-H torsion
[ 3525  925  924  922 ] final  -16.57 input   59.99 | X-H torsion
[ 4531 1957 1955 1953 ] final   -5.99 input   60.00 | X-H torsion

> <Gold.Protein.ActiveResidues>
 PHE267  PRO268  MET310  ASP335  TRP336  MET339  TYR343  THR360  PRO361  ILE363 
 PRO371  SER374  ILE375  ASN378  PHE381  TYR383  GLN384  PHE387  LEU408  LEU417 
 MET419  LEU428  TYR466  MET469  ASN472  ASP496  VAL498  LEU499  MET503  HIS524 
 TRP525 

> <Gold.Protein.RotatedAtoms>
   -3.7171  -29.5155  -30.2359 H   0  0  0  0  0  0  0  0  0  0  0  0  # atno 3525 bound_to 925 
  -11.0910  -22.8740  -31.2322 H   0  0  0  0  0  0  0  0  0  0  0  0  # atno 3677 bound_to 1070
  -10.8044  -37.2458  -33.6546 H   0  0  0  0  0  0  0  0  0  0  0  0  # atno 3781 bound_to 1176
  -14.7694  -28.9030  -37.3532 H   0  0  0  0  0  0  0  0  0  0  0  0  # atno 3847 bound_to 1247
  -13.5482  -25.3704  -39.5137 H   0  0  0  0  0  0  0  0  0  0  0  0  # atno 4507 bound_to 1931
   -2.7883  -32.4319  -36.7009 H   0  0  0  0  0  0  0  0  0  0  0  0  # atno 4531 bound_to 1957
   -9.4759  -36.3131  -33.7702 LP  0  0  0  0  0  0  0  0  0  0  0  0  # atno 5205 bound_to 1176
   -9.8249  -37.0716  -32.3668 LP  0  0  0  0  0  0  0  0  0  0  0  0  # atno 5206 bound_to 1176
  -16.0728  -27.9396  -37.2075 LP  0  0  0  0  0  0  0  0  0  0  0  0  # atno 5215 bound_to 1247
  -14.7252  -27.3887  -37.9472 LP  0  0  0  0  0  0  0  0  0  0  0  0  # atno 5216 bound_to 1247
  -13.1760  -24.0753  -40.4259 LP  0  0  0  0  0  0  0  0  0  0  0  0  # atno 5217 bound_to 1931
  -12.4671  -24.2827  -38.9695 LP  0  0  0  0  0  0  0  0  0  0  0  0  # atno 5218 bound_to 1931
  -12.3440  -22.3632  -30.3283 LP  0  0  0  0  0  0  0  0  0  0  0  0  # atno 5224 bound_to 1070
  -12.4251  -23.7972  -31.1051 LP  0  0  0  0  0  0  0  0  0  0  0  0  # atno 5225 bound_to 1070

$$$$
EZ_17|Lisa_paper2_min|sdf|4|dock7
  -GOLD-  10182016553D 1   1.00000     0.00000

 48 51  0  0  0  0  0  0  0  0  1 V2000
  -20.7531  -24.3443  -36.0186 C   0  0  0  0  0  0  0  0  0  0  0  0
  -20.5913  -23.7188  -37.2570 C   0  0  0  0  0  0  0  0  0  0  0  0
  -19.6981  -25.0454  -35.4212 C   0  0  0  0  0  0  0  0  0  0  0  0
  -19.3731  -23.7701  -37.9425 C   0  0  0  0  0  0  0  0  0  0  0  0
  -11.0308  -26.8196  -36.3737 C   0  0  0  0  0  0  0  0  0  0  0  0
   -6.5031  -30.4187  -35.5057 C   0  0  0  0  0  0  0  0  0  0  0  0
  -12.3165  -26.3643  -36.6654 C   0  0  0  0  0  0  0  0  0  0  0  0
   -5.6695  -31.5352  -35.4420 C   0  0  0  0  0  0  0  0  0  0  0  0
  -12.2942  -25.0169  -34.6600 C   0  0  0  0  0  0  0  0  0  0  0  0
   -5.3768  -29.4685  -33.5911 C   0  0  0  0  0  0  0  0  0  0  0  0
  -11.0085  -25.4724  -34.3683 C   0  0  0  0  0  0  0  0  0  0  0  0
  -18.4671  -25.1074  -36.0960 C   0  0  0  0  0  0  0  0  0  0  0  0
  -18.3365  -24.4739  -37.3286 C   0  0  0  0  0  0  0  0  0  0  0  0
   -6.3568  -29.3852  -34.5803 C   0  0  0  0  0  0  0  0  0  0  0  0
  -10.3768  -26.3737  -35.2252 C   0  0  0  0  0  0  0  0  0  0  0  0
  -12.9483  -25.4628  -35.8086 C   0  0  0  0  0  0  0  0  0  0  0  0
   -4.6895  -31.6184  -34.4527 C   0  0  0  0  0  0  0  0  0  0  0  0
   -4.5433  -30.5850  -33.5273 C   0  0  0  0  0  0  0  0  0  0  0  0
  -16.4577  -25.4713  -36.7201 C   0  0  0  0  0  0  0  0  0  0  0  0
   -8.5425  -28.1272  -34.9842 C   0  0  0  0  0  0  0  0  0  0  0  0
  -10.3324  -24.9777  -33.1310 C   0  0  0  0  0  0  0  0  0  0  0  0
  -15.0531  -25.9091  -36.8218 C   0  0  0  0  0  0  0  0  0  0  0  0
  -17.2900  -25.7213  -35.7343 N   0  0  0  0  0  0  0  0  0  0  0  0
  -17.0413  -24.7230  -37.7043 N   0  0  0  0  0  0  0  0  0  0  0  0
   -7.2036  -28.2506  -34.6459 N   0  0  0  0  0  0  0  0  0  0  0  0
   -9.0901  -26.8429  -34.9493 N   0  0  0  0  0  0  0  0  0  0  0  0
  -14.2087  -25.0160  -36.0949 O   0  0  0  0  0  0  0  0  0  0  0  0
   -9.3876  -29.5589  -35.2610 S   0  0  0  0  0  0  0  0  0  0  0  0
   -3.6901  -33.0285  -34.4244 Cl  0  0  0  0  0  0  0  0  0  0  0  0
   -3.3495  -30.6312  -32.2776 Cl  0  0  0  0  0  0  0  0  0  0  0  0
  -21.7121  -24.2862  -35.5100 H   0  0  0  0  0  0  0  0  0  0  0  0
  -21.4283  -23.1826  -37.6978 H   0  0  0  0  0  0  0  0  0  0  0  0
  -19.8340  -25.5271  -34.4582 H   0  0  0  0  0  0  0  0  0  0  0  0
  -19.2455  -23.2844  -38.9031 H   0  0  0  0  0  0  0  0  0  0  0  0
  -10.5489  -27.5229  -37.0485 H   0  0  0  0  0  0  0  0  0  0  0  0
   -7.2625  -30.3631  -36.2815 H   0  0  0  0  0  0  0  0  0  0  0  0
  -12.8206  -26.7150  -37.5618 H   0  0  0  0  0  0  0  0  0  0  0  0
   -5.7968  -32.3303  -36.1723 H   0  0  0  0  0  0  0  0  0  0  0  0
  -12.7896  -24.3146  -33.9939 H   0  0  0  0  0  0  0  0  0  0  0  0
   -5.2684  -28.6597  -32.8711 H   0  0  0  0  0  0  0  0  0  0  0  0
   -9.4851  -24.3340  -33.3935 H   0  0  0  0  0  0  0  0  0  0  0  0
  -11.0259  -24.4052  -32.5033 H   0  0  0  0  0  0  0  0  0  0  0  0
   -9.9633  -25.8116  -32.5215 H   0  0  0  0  0  0  0  0  0  0  0  0
  -14.9020  -26.9251  -36.4151 H   0  0  0  0  0  0  0  0  0  0  0  0
  -14.7026  -25.9338  -37.8690 H   0  0  0  0  0  0  0  0  0  0  0  0
  -16.5993  -24.4074  -38.5576 H   0  0  0  0  0  0  0  0  0  0  0  0
   -6.7586  -27.3784  -34.3677 H   0  0  0  0  0  0  0  0  0  0  0  0
   -8.4490  -26.1428  -34.5614 H   0  0  0  0  0  0  0  0  0  0  0  0
  1  2  2  0  0  0  0
  1  3  1  0  0  0  0
  2  4  1  0  0  0  0
  3 12  2  0  0  0  0
  4 13  2  0  0  0  0
  5  7  1  0  0  0  0
  5 15  2  0  0  0  0
  6  8  1  0  0  0  0
  6 14  2  0  0  0  0
  7 16  2  0  0  0  0
  8 17  2  0  0  0  0
  9 11  2  0  0  0  0
  9 16  1  0  0  0  0
 10 14  1  0  0  0  0
 10 18  2  0  0  0  0
 11 15  1  0  0  0  0
 11 21  1  0  0  0  0
 12 13  1  0  0  0  0
 12 23  1  0  0  0  0
 13 24  1  0  0  0  0
 14 25  1  0  0  0  0
 15 26  1  0  0  0  0
 16 27  1  0  0  0  0
 17 18  1  0  0  0  0
 17 29  1  0  0  0  0
 18 30  1  0  0  0  0
 19 22  1  0  0  0  0
 19 23  2  0  0  0  0
 19 24  1  0  0  0  0
 20 25  1  0  0  0  0
 20 26  1  0  0  0  0
 20 28  2  0  0  0  0
 22 27  1  0  0  0  0
  1 31  1  0  0  0  0
  2 32  1  0  0  0  0
  3 33  1  0  0  0  0
  4 34  1  0  0  0  0
  5 35  1  0  0  0  0
  6 36  1  0  0  0  0
  7 37  1  0  0  0  0
  8 38  1  0  0  0  0
  9 39  1  0  0  0  0
 10 40  1  0  0  0  0
 21 41  1  0  0  0  0
 21 42  1  0  0  0  0
 21 43  1  0  0  0  0
 22 44  1  0  0  0  0
 22 45  1  0  0  0  0
 24 46  1  0  0  0  0
 25 47  1  0  0  0  0
 26 48  1  0  0  0  0
M  END
> <Name>
EZ_17

> <SourceTag>
EZ_17

> <Activity_sEH>
223.4

> <Activity_FLAP>
0.6

> <Gold.Version>
5.2

> <Gold.Id.Protein>
6HGV|6HGV_protein|mol2

> <Gold.Goldscore.Fitness>
82.6239

> <Gold.Goldscore.Internal.Vdw>
-6.6799

> <Gold.Goldscore.Internal.Torsion>
-7.2325

> <Gold.Goldscore.External.Vdw>
61.2652

> <Gold.Goldscore.Internal.HBond>
0.0000

> <Gold.Goldscore.External.HBond>
0.0408

> <Gold.Goldscore.Internal.Correction>
-12.2557

> <Gold.Goldscore.Hbonds>
donor molecule, donor type, donor heavy atom, donor atom, acceptor molecule, acceptor atom, score
      P1  H  1256  3854       L1    28  0.04

> <Gold.Goldscore.Internal.Vdw.Weighted>
-6.6799

> <Gold.Goldscore.Internal.Torsion.Weighted>
-7.2325

> <Gold.Goldscore.External.Vdw.Weighted>
84.2397

> <Gold.Goldscore.Internal.HBond.Weighted>
0.0000

> <Gold.Goldscore.External.HBond.Weighted>
0.0408

> <Gold.Goldscore.Internal.Correction.Weighted>
-12.2557

> <Gold.Protein.RotatedTorsions>
[ 3781 1176 1175 1172 ] final -150.69 input   60.00 | X-H torsion
[ 3847 1247 1246 1244 ] final  -13.62 input   60.00 | X-H torsion
[ 4507 1931 1930 1928 ] final   89.52 input   60.00 | X-H torsion
[ 3677 1070 1069 1066 ] final  -25.08 input   60.00 | X-H torsion
[ 3525  925  924  922 ] final  -81.10 input   59.99 | X-H torsion
[ 4531 1957 1955 1953 ] final  -69.28 input   60.00 | X-H torsion

> <Gold.Protein.ActiveResidues>
 PHE267  PRO268  MET310  ASP335  TRP336  MET339  TYR343  THR360  PRO361  ILE363 
 PRO371  SER374  ILE375  ASN378  PHE381  TYR383  GLN384  PHE387  LEU408  LEU417 
 MET419  LEU428  TYR466  MET469  ASN472  ASP496  VAL498  LEU499  MET503  HIS524 
 TRP525 

> <Gold.Protein.RotatedAtoms>
   -3.5332  -29.6842  -29.2680 H   0  0  0  0  0  0  0  0  0  0  0  0  # atno 3525 bound_to 925 
  -12.6994  -23.5720  -30.8390 H   0  0  0  0  0  0  0  0  0  0  0  0  # atno 3677 bound_to 1070
   -9.2643  -36.3502  -33.3022 H   0  0  0  0  0  0  0  0  0  0  0  0  # atno 3781 bound_to 1176
  -15.8608  -28.5551  -37.0580 H   0  0  0  0  0  0  0  0  0  0  0  0  # atno 3847 bound_to 1247
  -12.4633  -24.2634  -38.9915 H   0  0  0  0  0  0  0  0  0  0  0  0  # atno 4507 bound_to 1931
   -1.8374  -32.2611  -36.8787 H   0  0  0  0  0  0  0  0  0  0  0  0  # atno 4531 bound_to 1957
  -10.2631  -37.3264  -32.4671 LP  0  0  0  0  0  0  0  0  0  0  0  0  # atno 5205 bound_to 1176
  -10.5887  -36.9602  -34.0248 LP  0  0  0  0  0  0  0  0  0  0  0  0  # atno 5206 bound_to 1176
  -15.3435  -27.1915  -37.7799 LP  0  0  0  0  0  0  0  0  0  0  0  0  # atno 5215 bound_to 1247
  -14.3554  -28.4871  -37.6721 LP  0  0  0  0  0  0  0  0  0  0  0  0  # atno 5216 bound_to 1247
  -13.5407  -25.3781  -39.4862 LP  0  0  0  0  0  0  0  0  0  0  0  0  # atno 5217 bound_to 1931
  -13.1951  -24.0948  -40.4351 LP  0  0  0  0  0  0  0  0  0  0  0  0  # atno 5218 bound_to 1931
  -11.2039  -23.2673  -31.4037 LP  0  0  0  0  0  0  0  0  0  0  0  0  # atno 5224 bound_to 1070
  -11.9455  -22.1903  -30.4257 LP  0  0  0  0  0  0  0  0  0  0  0  0  # atno 5225 bound_to 1070

$$$$
EZ_17|Lisa_paper2_min|sdf|4|dock6
  -GOLD-  10182016553D 1   1.00000     0.00000

 48 51  0  0  0  0  0  0  0  0  1 V2000
  -20.6875  -24.0814  -36.1897 C   0  0  0  0  0  0  0  0  0  0  0  0
  -20.3796  -23.2769  -37.2892 C   0  0  0  0  0  0  0  0  0  0  0  0
  -19.7268  -24.9295  -35.6247 C   0  0  0  0  0  0  0  0  0  0  0  0
  -19.1041  -23.2895  -37.8633 C   0  0  0  0  0  0  0  0  0  0  0  0
  -11.0810  -26.9632  -36.2791 C   0  0  0  0  0  0  0  0  0  0  0  0
   -6.6146  -30.6811  -35.4780 C   0  0  0  0  0  0  0  0  0  0  0  0
  -12.3724  -26.4843  -36.4986 C   0  0  0  0  0  0  0  0  0  0  0  0
   -5.8132  -31.8194  -35.3909 C   0  0  0  0  0  0  0  0  0  0  0  0
  -12.1747  -25.0611  -34.5563 C   0  0  0  0  0  0  0  0  0  0  0  0
   -5.3227  -29.6373  -33.7234 C   0  0  0  0  0  0  0  0  0  0  0  0
  -10.8832  -25.5402  -34.3367 C   0  0  0  0  0  0  0  0  0  0  0  0
  -18.4401  -24.9550  -36.1888 C   0  0  0  0  0  0  0  0  0  0  0  0
  -18.1634  -24.1417  -37.2842 C   0  0  0  0  0  0  0  0  0  0  0  0
   -6.3694  -29.5899  -34.6443 C   0  0  0  0  0  0  0  0  0  0  0  0
  -10.3363  -26.4912  -35.1982 C   0  0  0  0  0  0  0  0  0  0  0  0
  -12.9194  -25.5331  -35.6372 C   0  0  0  0  0  0  0  0  0  0  0  0
   -4.7666  -31.8667  -34.4700 C   0  0  0  0  0  0  0  0  0  0  0  0
   -4.5214  -30.7756  -33.6362 C   0  0  0  0  0  0  0  0  0  0  0  0
  -16.3975  -25.3317  -36.6840 C   0  0  0  0  0  0  0  0  0  0  0  0
   -8.5426  -28.2873  -34.9662 C   0  0  0  0  0  0  0  0  0  0  0  0
  -10.1090  -25.0166  -33.1708 C   0  0  0  0  0  0  0  0  0  0  0  0
  -15.0099  -25.8292  -36.7316 C   0  0  0  0  0  0  0  0  0  0  0  0
  -17.3313  -25.6867  -35.8303 N   0  0  0  0  0  0  0  0  0  0  0  0
  -16.8500  -24.4031  -37.5796 N   0  0  0  0  0  0  0  0  0  0  0  0
   -7.1835  -28.4332  -34.7337 N   0  0  0  0  0  0  0  0  0  0  0  0
   -9.0453  -26.9846  -34.9939 N   0  0  0  0  0  0  0  0  0  0  0  0
  -14.1854  -25.0631  -35.8528 O   0  0  0  0  0  0  0  0  0  0  0  0
   -9.4522  -29.7038  -35.0474 S   0  0  0  0  0  0  0  0  0  0  0  0
   -3.8115  -33.3062  -34.4080 Cl  0  0  0  0  0  0  0  0  0  0  0  0
   -3.2414  -30.7750  -32.4741 Cl  0  0  0  0  0  0  0  0  0  0  0  0
  -21.6879  -24.0491  -35.7653 H   0  0  0  0  0  0  0  0  0  0  0  0
  -21.1459  -22.6292  -37.7082 H   0  0  0  0  0  0  0  0  0  0  0  0
  -19.9761  -25.5498  -34.7698 H   0  0  0  0  0  0  0  0  0  0  0  0
  -18.8631  -22.6650  -38.7160 H   0  0  0  0  0  0  0  0  0  0  0  0
  -10.6656  -27.7053  -36.9568 H   0  0  0  0  0  0  0  0  0  0  0  0
   -7.4266  -30.6540  -36.2002 H   0  0  0  0  0  0  0  0  0  0  0  0
  -12.9473  -26.8555  -37.3426 H   0  0  0  0  0  0  0  0  0  0  0  0
   -6.0179  -32.6598  -36.0495 H   0  0  0  0  0  0  0  0  0  0  0  0
  -12.6040  -24.3201  -33.8863 H   0  0  0  0  0  0  0  0  0  0  0  0
   -5.1372  -28.7834  -33.0748 H   0  0  0  0  0  0  0  0  0  0  0  0
   -9.7387  -25.8464  -32.5582 H   0  0  0  0  0  0  0  0  0  0  0  0
   -9.2529  -24.4163  -33.5018 H   0  0  0  0  0  0  0  0  0  0  0  0
  -10.7310  -24.3675  -32.5424 H   0  0  0  0  0  0  0  0  0  0  0  0
  -14.9358  -26.8890  -36.4284 H   0  0  0  0  0  0  0  0  0  0  0  0
  -14.5811  -25.7616  -37.7473 H   0  0  0  0  0  0  0  0  0  0  0  0
  -16.3141  -23.9819  -38.3269 H   0  0  0  0  0  0  0  0  0  0  0  0
   -6.6892  -27.5586  -34.5695 H   0  0  0  0  0  0  0  0  0  0  0  0
   -8.3515  -26.2799  -34.7229 H   0  0  0  0  0  0  0  0  0  0  0  0
  1  2  2  0  0  0  0
  1  3  1  0  0  0  0
  2  4  1  0  0  0  0
  3 12  2  0  0  0  0
  4 13  2  0  0  0  0
  5  7  1  0  0  0  0
  5 15  2  0  0  0  0
  6  8  1  0  0  0  0
  6 14  2  0  0  0  0
  7 16  2  0  0  0  0
  8 17  2  0  0  0  0
  9 11  2  0  0  0  0
  9 16  1  0  0  0  0
 10 14  1  0  0  0  0
 10 18  2  0  0  0  0
 11 15  1  0  0  0  0
 11 21  1  0  0  0  0
 12 13  1  0  0  0  0
 12 23  1  0  0  0  0
 13 24  1  0  0  0  0
 14 25  1  0  0  0  0
 15 26  1  0  0  0  0
 16 27  1  0  0  0  0
 17 18  1  0  0  0  0
 17 29  1  0  0  0  0
 18 30  1  0  0  0  0
 19 22  1  0  0  0  0
 19 23  2  0  0  0  0
 19 24  1  0  0  0  0
 20 25  1  0  0  0  0
 20 26  1  0  0  0  0
 20 28  2  0  0  0  0
 22 27  1  0  0  0  0
  1 31  1  0  0  0  0
  2 32  1  0  0  0  0
  3 33  1  0  0  0  0
  4 34  1  0  0  0  0
  5 35  1  0  0  0  0
  6 36  1  0  0  0  0
  7 37  1  0  0  0  0
  8 38  1  0  0  0  0
  9 39  1  0  0  0  0
 10 40  1  0  0  0  0
 21 41  1  0  0  0  0
 21 42  1  0  0  0  0
 21 43  1  0  0  0  0
 22 44  1  0  0  0  0
 22 45  1  0  0  0  0
 24 46  1  0  0  0  0
 25 47  1  0  0  0  0
 26 48  1  0  0  0  0
M  END
> <Name>
EZ_17

> <SourceTag>
EZ_17

> <Activity_sEH>
223.4

> <Activity_FLAP>
0.6

> <Gold.Version>
5.2

> <Gold.Id.Protein>
6HGV|6HGV_protein|mol2

> <Gold.Goldscore.Fitness>
82.4698

> <Gold.Goldscore.Internal.Vdw>
-9.4423

> <Gold.Goldscore.Internal.Torsion>
-6.8598

> <Gold.Goldscore.External.Vdw>
62.8819

> <Gold.Goldscore.Internal.HBond>
0.0000

> <Gold.Goldscore.External.HBond>
0.0536

> <Gold.Goldscore.Internal.Correction>
-12.2557

> <Gold.Goldscore.Hbonds>
donor molecule, donor type, donor heavy atom, donor atom, acceptor molecule, acceptor atom, score
      P1  H  1256  3854       L1    28  0.05

> <Gold.Goldscore.Internal.Vdw.Weighted>
-9.4423

> <Gold.Goldscore.Internal.Torsion.Weighted>
-6.8598

> <Gold.Goldscore.External.Vdw.Weighted>
86.4626

> <Gold.Goldscore.Internal.HBond.Weighted>
0.0000

> <Gold.Goldscore.External.HBond.Weighted>
0.0536

> <Gold.Goldscore.Internal.Correction.Weighted>
-12.2557

> <Gold.Protein.RotatedTorsions>
[ 3781 1176 1175 1172 ] final   62.79 input   60.00 | X-H torsion
[ 3847 1247 1246 1244 ] final   54.59 input   60.00 | X-H torsion
[ 4507 1931 1930 1928 ] final   74.76 input   60.00 | X-H torsion
[ 3677 1070 1069 1066 ] final    1.76 input   60.00 | X-H torsion
[ 3525  925  924  922 ] final  -50.45 input   59.99 | X-H torsion
[ 4531 1957 1955 1953 ] final  -25.82 input   60.00 | X-H torsion

> <Gold.Protein.ActiveResidues>
 PHE267  PRO268  MET310  ASP335  TRP336  MET339  TYR343  THR360  PRO361  ILE363 
 PRO371  SER374  ILE375  ASN378  PHE381  TYR383  GLN384  PHE387  LEU408  LEU417 
 MET419  LEU428  TYR466  MET469  ASN472  ASP496  VAL498  LEU499  MET503  HIS524 
 TRP525 

> <Gold.Protein.RotatedAtoms>
   -3.7499  -29.5509  -29.6925 H   0  0  0  0  0  0  0  0  0  0  0  0  # atno 3525 bound_to 925 
  -12.8107  -23.2328  -30.5911 H   0  0  0  0  0  0  0  0  0  0  0  0  # atno 3677 bound_to 1070
  -10.5767  -37.4358  -32.7417 H   0  0  0  0  0  0  0  0  0  0  0  0  # atno 3781 bound_to 1176
  -14.9121  -28.9458  -37.2809 H   0  0  0  0  0  0  0  0  0  0  0  0  # atno 3847 bound_to 1247
  -12.5336  -24.4613  -38.8742 H   0  0  0  0  0  0  0  0  0  0  0  0  # atno 4507 bound_to 1931
   -2.5184  -32.2623  -36.7493 H   0  0  0  0  0  0  0  0  0  0  0  0  # atno 4531 bound_to 1957
  -10.2722  -36.6984  -34.1600 LP  0  0  0  0  0  0  0  0  0  0  0  0  # atno 5205 bound_to 1176
   -9.2580  -36.4950  -32.8964 LP  0  0  0  0  0  0  0  0  0  0  0  0  # atno 5206 bound_to 1176
  -16.0548  -27.7872  -37.2728 LP  0  0  0  0  0  0  0  0  0  0  0  0  # atno 5215 bound_to 1247
  -14.5995  -27.4980  -37.9547 LP  0  0  0  0  0  0  0  0  0  0  0  0  # atno 5216 bound_to 1247
  -13.6330  -25.3274  -39.7043 LP  0  0  0  0  0  0  0  0  0  0  0  0  # atno 5217 bound_to 1931
  -13.0320  -23.9463  -40.3351 LP  0  0  0  0  0  0  0  0  0  0  0  0  # atno 5218 bound_to 1931
  -11.4826  -23.6006  -31.4565 LP  0  0  0  0  0  0  0  0  0  0  0  0  # atno 5224 bound_to 1070
  -11.5547  -22.1985  -30.6225 LP  0  0  0  0  0  0  0  0  0  0  0  0  # atno 5225 bound_to 1070

$$$$
EZ_17|Lisa_paper2_min|sdf|4|dock1
  -GOLD-  10182016543D 1   1.00000     0.00000

 48 51  0  0  0  0  0  0  0  0  1 V2000
  -20.6979  -24.2332  -36.1465 C   0  0  0  0  0  0  0  0  0  0  0  0
  -20.4229  -23.5194  -37.3151 C   0  0  0  0  0  0  0  0  0  0  0  0
  -19.7172  -25.0267  -35.5381 C   0  0  0  0  0  0  0  0  0  0  0  0
  -19.1616  -23.5714  -37.9176 C   0  0  0  0  0  0  0  0  0  0  0  0
  -10.9962  -26.9020  -36.2840 C   0  0  0  0  0  0  0  0  0  0  0  0
   -5.3248  -29.4446  -33.4103 C   0  0  0  0  0  0  0  0  0  0  0  0
  -12.2860  -26.4513  -36.5647 C   0  0  0  0  0  0  0  0  0  0  0  0
   -4.5085  -30.5660  -33.2635 C   0  0  0  0  0  0  0  0  0  0  0  0
  -12.2144  -25.0303  -34.6120 C   0  0  0  0  0  0  0  0  0  0  0  0
   -6.4997  -30.5364  -35.2172 C   0  0  0  0  0  0  0  0  0  0  0  0
  -10.9245  -25.4811  -34.3313 C   0  0  0  0  0  0  0  0  0  0  0  0
  -18.4444  -25.0906  -36.1298 C   0  0  0  0  0  0  0  0  0  0  0  0
  -18.2005  -24.3679  -37.2943 C   0  0  0  0  0  0  0  0  0  0  0  0
   -6.3205  -29.4297  -34.3872 C   0  0  0  0  0  0  0  0  0  0  0  0
  -10.3155  -26.4169  -35.1673 C   0  0  0  0  0  0  0  0  0  0  0  0
  -12.8952  -25.5154  -35.7287 C   0  0  0  0  0  0  0  0  0  0  0  0
   -4.6877  -31.6727  -34.0935 C   0  0  0  0  0  0  0  0  0  0  0  0
   -5.6833  -31.6578  -35.0704 C   0  0  0  0  0  0  0  0  0  0  0  0
  -16.4114  -25.4947  -36.6429 C   0  0  0  0  0  0  0  0  0  0  0  0
   -8.5016  -28.1744  -34.8234 C   0  0  0  0  0  0  0  0  0  0  0  0
  -10.2196  -24.9441  -33.1281 C   0  0  0  0  0  0  0  0  0  0  0  0
  -15.0215  -25.9863  -36.6840 C   0  0  0  0  0  0  0  0  0  0  0  0
  -17.3216  -25.7841  -35.7403 N   0  0  0  0  0  0  0  0  0  0  0  0
  -16.8926  -24.6450  -37.5997 N   0  0  0  0  0  0  0  0  0  0  0  0
   -7.1502  -28.2903  -34.5356 N   0  0  0  0  0  0  0  0  0  0  0  0
   -9.0251  -26.8820  -34.9018 N   0  0  0  0  0  0  0  0  0  0  0  0
  -14.1596  -25.0731  -36.0043 O   0  0  0  0  0  0  0  0  0  0  0  0
   -9.3830  -29.6087  -34.9052 S   0  0  0  0  0  0  0  0  0  0  0  0
   -3.6425  -33.0303  -33.8642 Cl  0  0  0  0  0  0  0  0  0  0  0  0
   -5.9526  -32.9970  -36.1302 Cl  0  0  0  0  0  0  0  0  0  0  0  0
  -21.6879  -24.1722  -35.7015 H   0  0  0  0  0  0  0  0  0  0  0  0
  -21.2041  -22.9125  -37.7665 H   0  0  0  0  0  0  0  0  0  0  0  0
  -19.9410  -25.5765  -34.6295 H   0  0  0  0  0  0  0  0  0  0  0  0
  -18.9461  -23.0172  -38.8240 H   0  0  0  0  0  0  0  0  0  0  0  0
  -10.5321  -27.6324  -36.9423 H   0  0  0  0  0  0  0  0  0  0  0  0
   -5.1778  -28.5882  -32.7573 H   0  0  0  0  0  0  0  0  0  0  0  0
  -12.8110  -26.8326  -37.4363 H   0  0  0  0  0  0  0  0  0  0  0  0
   -3.7387  -30.5607  -32.4958 H   0  0  0  0  0  0  0  0  0  0  0  0
  -12.6921  -24.3012  -33.9620 H   0  0  0  0  0  0  0  0  0  0  0  0
   -7.2772  -30.5184  -35.9783 H   0  0  0  0  0  0  0  0  0  0  0  0
  -10.9073  -24.3428  -32.5228 H   0  0  0  0  0  0  0  0  0  0  0  0
   -9.8241  -25.7562  -32.5062 H   0  0  0  0  0  0  0  0  0  0  0  0
   -9.3668  -24.3174  -33.4162 H   0  0  0  0  0  0  0  0  0  0  0  0
  -14.9142  -26.9754  -36.2036 H   0  0  0  0  0  0  0  0  0  0  0  0
  -14.6528  -26.0974  -37.7193 H   0  0  0  0  0  0  0  0  0  0  0  0
  -16.3782  -24.2830  -38.3919 H   0  0  0  0  0  0  0  0  0  0  0  0
   -6.6778  -27.4033  -34.3737 H   0  0  0  0  0  0  0  0  0  0  0  0
   -8.3544  -26.1588  -34.6215 H   0  0  0  0  0  0  0  0  0  0  0  0
  1  2  2  0  0  0  0
  1  3  1  0  0  0  0
  2  4  1  0  0  0  0
  3 12  2  0  0  0  0
  4 13  2  0  0  0  0
  5  7  1  0  0  0  0
  5 15  2  0  0  0  0
  6  8  1  0  0  0  0
  6 14  2  0  0  0  0
  7 16  2  0  0  0  0
  8 17  2  0  0  0  0
  9 11  2  0  0  0  0
  9 16  1  0  0  0  0
 10 14  1  0  0  0  0
 10 18  2  0  0  0  0
 11 15  1  0  0  0  0
 11 21  1  0  0  0  0
 12 13  1  0  0  0  0
 12 23  1  0  0  0  0
 13 24  1  0  0  0  0
 14 25  1  0  0  0  0
 15 26  1  0  0  0  0
 16 27  1  0  0  0  0
 17 18  1  0  0  0  0
 17 29  1  0  0  0  0
 18 30  1  0  0  0  0
 19 22  1  0  0  0  0
 19 23  2  0  0  0  0
 19 24  1  0  0  0  0
 20 25  1  0  0  0  0
 20 26  1  0  0  0  0
 20 28  2  0  0  0  0
 22 27  1  0  0  0  0
  1 31  1  0  0  0  0
  2 32  1  0  0  0  0
  3 33  1  0  0  0  0
  4 34  1  0  0  0  0
  5 35  1  0  0  0  0
  6 36  1  0  0  0  0
  7 37  1  0  0  0  0
  8 38  1  0  0  0  0
  9 39  1  0  0  0  0
 10 40  1  0  0  0  0
 21 41  1  0  0  0  0
 21 42  1  0  0  0  0
 21 43  1  0  0  0  0
 22 44  1  0  0  0  0
 22 45  1  0  0  0  0
 24 46  1  0  0  0  0
 25 47  1  0  0  0  0
 26 48  1  0  0  0  0
M  END
> <Name>
EZ_17

> <SourceTag>
EZ_17

> <Activity_sEH>
223.4

> <Activity_FLAP>
0.6

> <Gold.Version>
5.2

> <Gold.Id.Protein>
6HGV|6HGV_protein|mol2

> <Gold.Goldscore.Fitness>
82.3170

> <Gold.Goldscore.Internal.Vdw>
-6.9675

> <Gold.Goldscore.Internal.Torsion>
-7.6985

> <Gold.Goldscore.External.Vdw>
61.5923

> <Gold.Goldscore.Internal.HBond>
0.0000

> <Gold.Goldscore.External.HBond>
0.0379

> <Gold.Goldscore.Internal.Correction>
-12.2557

> <Gold.Goldscore.Hbonds>
donor molecule, donor type, donor heavy atom, donor atom, acceptor molecule, acceptor atom, score
      P1  H  1256  3854       L1    28  0.04

> <Gold.Goldscore.Internal.Vdw.Weighted>
-6.9675

> <Gold.Goldscore.Internal.Torsion.Weighted>
-7.6985

> <Gold.Goldscore.External.Vdw.Weighted>
84.6894

> <Gold.Goldscore.Internal.HBond.Weighted>
0.0000

> <Gold.Goldscore.External.HBond.Weighted>
0.0379

> <Gold.Goldscore.Internal.Correction.Weighted>
-12.2557

> <Gold.Protein.RotatedTorsions>
[ 3781 1176 1175 1172 ] final  157.98 input   60.00 | X-H torsion
[ 3847 1247 1246 1244 ] final   66.36 input   60.00 | X-H torsion
[ 4507 1931 1930 1928 ] final   57.16 input   60.00 | X-H torsion
[ 3677 1070 1069 1066 ] final  -42.44 input   60.00 | X-H torsion
[ 3525  925  924  922 ] final  -34.60 input   59.99 | X-H torsion
[ 4531 1957 1955 1953 ] final    4.24 input   60.00 | X-H torsion

> <Gold.Protein.ActiveResidues>
 PHE267  PRO268  MET310  ASP335  TRP336  MET339  TYR343  THR360  PRO361  ILE363 
 PRO371  SER374  ILE375  ASN378  PHE381  TYR383  GLN384  PHE387  LEU408  LEU417 
 MET419  LEU428  TYR466  MET469  ASN472  ASP496  VAL498  LEU499  MET503  HIS524 
 TRP525 

> <Gold.Protein.RotatedAtoms>
   -3.7716  -29.5181  -29.9476 H   0  0  0  0  0  0  0  0  0  0  0  0  # atno 3525 bound_to 925 
  -12.5385  -23.7307  -31.0085 H   0  0  0  0  0  0  0  0  0  0  0  0  # atno 3677 bound_to 1070
   -9.4081  -36.7125  -32.5912 H   0  0  0  0  0  0  0  0  0  0  0  0  # atno 3781 bound_to 1176
  -14.7478  -28.8938  -37.3652 H   0  0  0  0  0  0  0  0  0  0  0  0  # atno 3847 bound_to 1247
  -12.6626  -24.7062  -38.8005 H   0  0  0  0  0  0  0  0  0  0  0  0  # atno 4507 bound_to 1931
   -2.9011  -32.5536  -36.6816 H   0  0  0  0  0  0  0  0  0  0  0  0  # atno 4531 bound_to 1957
  -10.7772  -37.4353  -33.0920 LP  0  0  0  0  0  0  0  0  0  0  0  0  # atno 5205 bound_to 1176
   -9.9298  -36.4865  -34.1159 LP  0  0  0  0  0  0  0  0  0  0  0  0  # atno 5206 bound_to 1176
  -16.0731  -27.9644  -37.1979 LP  0  0  0  0  0  0  0  0  0  0  0  0  # atno 5215 bound_to 1247
  -14.7467  -27.3732  -37.9447 LP  0  0  0  0  0  0  0  0  0  0  0  0  # atno 5216 bound_to 1247
  -13.6938  -25.2027  -39.9573 LP  0  0  0  0  0  0  0  0  0  0  0  0  # atno 5217 bound_to 1931
  -12.8413  -23.8243  -40.1564 LP  0  0  0  0  0  0  0  0  0  0  0  0  # atno 5218 bound_to 1931
  -11.1071  -23.0172  -31.3089 LP  0  0  0  0  0  0  0  0  0  0  0  0  # atno 5224 bound_to 1070
  -12.2044  -22.2806  -30.3498 LP  0  0  0  0  0  0  0  0  0  0  0  0  # atno 5225 bound_to 1070

$$$$
EZ_17|Lisa_paper2_min|sdf|4|dock10
  -GOLD-  10182016563D 1   1.00000     0.00000

 48 51  0  0  0  0  0  0  0  0  1 V2000
   -3.0175  -31.5950  -32.8276 C   0  0  0  0  0  0  0  0  0  0  0  0
   -3.4319  -32.7881  -33.4241 C   0  0  0  0  0  0  0  0  0  0  0  0
   -3.7276  -30.4043  -33.0266 C   0  0  0  0  0  0  0  0  0  0  0  0
   -4.5678  -32.8360  -34.2390 C   0  0  0  0  0  0  0  0  0  0  0  0
  -11.0669  -27.2077  -36.8763 C   0  0  0  0  0  0  0  0  0  0  0  0
  -17.0751  -25.1133  -35.3808 C   0  0  0  0  0  0  0  0  0  0  0  0
   -9.8888  -27.8507  -36.4966 C   0  0  0  0  0  0  0  0  0  0  0  0
  -18.4652  -25.0852  -35.2705 C   0  0  0  0  0  0  0  0  0  0  0  0
   -9.7643  -26.4588  -34.5258 C   0  0  0  0  0  0  0  0  0  0  0  0
  -17.2562  -24.7368  -37.7604 C   0  0  0  0  0  0  0  0  0  0  0  0
  -10.9424  -25.8157  -34.9055 C   0  0  0  0  0  0  0  0  0  0  0  0
   -4.8713  -30.4341  -33.8425 C   0  0  0  0  0  0  0  0  0  0  0  0
   -5.2593  -31.6383  -34.4231 C   0  0  0  0  0  0  0  0  0  0  0  0
  -16.4705  -24.9391  -36.6257 C   0  0  0  0  0  0  0  0  0  0  0  0
  -11.5936  -26.1902  -36.0808 C   0  0  0  0  0  0  0  0  0  0  0  0
   -9.2375  -27.4764  -35.3213 C   0  0  0  0  0  0  0  0  0  0  0  0
  -19.2510  -24.8829  -36.4052 C   0  0  0  0  0  0  0  0  0  0  0  0
  -18.6464  -24.7087  -37.6502 C   0  0  0  0  0  0  0  0  0  0  0  0
   -6.6285  -29.9891  -34.9710 C   0  0  0  0  0  0  0  0  0  0  0  0
  -14.1111  -25.7980  -36.1578 C   0  0  0  0  0  0  0  0  0  0  0  0
  -11.4832  -24.7292  -34.0338 C   0  0  0  0  0  0  0  0  0  0  0  0
   -7.7805  -29.3326  -35.6169 C   0  0  0  0  0  0  0  0  0  0  0  0
   -5.7337  -29.4211  -34.1940 N   0  0  0  0  0  0  0  0  0  0  0  0
   -6.3859  -31.3240  -35.1390 N   0  0  0  0  0  0  0  0  0  0  0  0
  -15.0578  -24.9670  -36.7372 N   0  0  0  0  0  0  0  0  0  0  0  0
  -12.7735  -25.5568  -36.4790 N   0  0  0  0  0  0  0  0  0  0  0  0
   -8.0827  -28.1073  -34.9488 O   0  0  0  0  0  0  0  0  0  0  0  0
  -14.6952  -27.0895  -35.2460 S   0  0  0  0  0  0  0  0  0  0  0  0
  -20.9677  -24.8615  -36.2039 Cl  0  0  0  0  0  0  0  0  0  0  0  0
  -19.5659  -24.4564  -39.0923 Cl  0  0  0  0  0  0  0  0  0  0  0  0
   -2.1306  -31.5898  -32.1990 H   0  0  0  0  0  0  0  0  0  0  0  0
   -2.8603  -33.6972  -33.2532 H   0  0  0  0  0  0  0  0  0  0  0  0
   -3.3977  -29.4829  -32.5577 H   0  0  0  0  0  0  0  0  0  0  0  0
   -4.8914  -33.7613  -34.7018 H   0  0  0  0  0  0  0  0  0  0  0  0
  -11.5652  -27.5075  -37.7951 H   0  0  0  0  0  0  0  0  0  0  0  0
  -16.4720  -25.2701  -34.4901 H   0  0  0  0  0  0  0  0  0  0  0  0
   -9.4837  -28.6430  -37.1203 H   0  0  0  0  0  0  0  0  0  0  0  0
  -18.9192  -25.2213  -34.2921 H   0  0  0  0  0  0  0  0  0  0  0  0
   -9.2539  -26.1690  -33.6104 H   0  0  0  0  0  0  0  0  0  0  0  0
  -16.7788  -24.6028  -38.7291 H   0  0  0  0  0  0  0  0  0  0  0  0
  -12.0273  -23.9942  -34.6378 H   0  0  0  0  0  0  0  0  0  0  0  0
  -12.1649  -25.1330  -33.2755 H   0  0  0  0  0  0  0  0  0  0  0  0
  -10.6770  -24.2141  -33.4975 H   0  0  0  0  0  0  0  0  0  0  0  0
   -7.5870  -29.1007  -36.6795 H   0  0  0  0  0  0  0  0  0  0  0  0
   -8.6847  -29.9666  -35.5925 H   0  0  0  0  0  0  0  0  0  0  0  0
   -6.9373  -31.9675  -35.6914 H   0  0  0  0  0  0  0  0  0  0  0  0
  -14.6737  -24.2749  -37.3772 H   0  0  0  0  0  0  0  0  0  0  0  0
  -12.6571  -24.8463  -37.2092 H   0  0  0  0  0  0  0  0  0  0  0  0
  1  2  2  0  0  0  0
  1  3  1  0  0  0  0
  2  4  1  0  0  0  0
  3 12  2  0  0  0  0
  4 13  2  0  0  0  0
  5  7  1  0  0  0  0
  5 15  2  0  0  0  0
  6  8  1  0  0  0  0
  6 14  2  0  0  0  0
  7 16  2  0  0  0  0
  8 17  2  0  0  0  0
  9 11  2  0  0  0  0
  9 16  1  0  0  0  0
 10 14  1  0  0  0  0
 10 18  2  0  0  0  0
 11 15  1  0  0  0  0
 11 21  1  0  0  0  0
 12 13  1  0  0  0  0
 12 23  1  0  0  0  0
 13 24  1  0  0  0  0
 14 25  1  0  0  0  0
 15 26  1  0  0  0  0
 16 27  1  0  0  0  0
 17 18  1  0  0  0  0
 17 29  1  0  0  0  0
 18 30  1  0  0  0  0
 19 22  1  0  0  0  0
 19 23  2  0  0  0  0
 19 24  1  0  0  0  0
 20 25  1  0  0  0  0
 20 26  1  0  0  0  0
 20 28  2  0  0  0  0
 22 27  1  0  0  0  0
  1 31  1  0  0  0  0
  2 32  1  0  0  0  0
  3 33  1  0  0  0  0
  4 34  1  0  0  0  0
  5 35  1  0  0  0  0
  6 36  1  0  0  0  0
  7 37  1  0  0  0  0
  8 38  1  0  0  0  0
  9 39  1  0  0  0  0
 10 40  1  0  0  0  0
 21 41  1  0  0  0  0
 21 42  1  0  0  0  0
 21 43  1  0  0  0  0
 22 44  1  0  0  0  0
 22 45  1  0  0  0  0
 24 46  1  0  0  0  0
 25 47  1  0  0  0  0
 26 48  1  0  0  0  0
M  END
> <Name>
EZ_17

> <SourceTag>
EZ_17

> <Activity_sEH>
223.4

> <Activity_FLAP>
0.6

> <Gold.Version>
5.2

> <Gold.Id.Protein>
6HGV|6HGV_protein|mol2

> <Gold.Goldscore.Fitness>
81.5807

> <Gold.Goldscore.Internal.Vdw>
-7.1805

> <Gold.Goldscore.Internal.Torsion>
-10.4193

> <Gold.Goldscore.External.Vdw>
63.1862

> <Gold.Goldscore.Internal.HBond>
0.0000

> <Gold.Goldscore.External.HBond>
0.0438

> <Gold.Goldscore.Internal.Correction>
-12.2557

> <Gold.Goldscore.Hbonds>
donor molecule, donor type, donor heavy atom, donor atom, acceptor molecule, acceptor atom, score
      L1  H    26    48       P1  1931  0.02

> <Gold.Goldscore.Internal.Vdw.Weighted>
-7.1805

> <Gold.Goldscore.Internal.Torsion.Weighted>
-10.4193

> <Gold.Goldscore.External.Vdw.Weighted>
86.8810

> <Gold.Goldscore.Internal.HBond.Weighted>
0.0000

> <Gold.Goldscore.External.HBond.Weighted>
0.0438

> <Gold.Goldscore.Internal.Correction.Weighted>
-12.2557

> <Gold.Protein.RotatedTorsions>
[ 3781 1176 1175 1172 ] final  -53.80 input   60.00 | X-H torsion
[ 3847 1247 1246 1244 ] final  127.29 input   60.00 | X-H torsion
[ 4507 1931 1930 1928 ] final  -38.94 input   60.00 | X-H torsion
[ 3677 1070 1069 1066 ] final  -40.84 input   60.00 | X-H torsion
[ 3525  925  924  922 ] final  -52.79 input   59.99 | X-H torsion
[ 4531 1957 1955 1953 ] final  -23.48 input   60.00 | X-H torsion

> <Gold.Protein.ActiveResidues>
 PHE267  PRO268  MET310  ASP335  TRP336  MET339  TYR343  THR360  PRO361  ILE363 
 PRO371  SER374  ILE375  ASN378  PHE381  TYR383  GLN384  PHE387  LEU408  LEU417 
 MET419  LEU428  TYR466  MET469  ASN472  ASP496  VAL498  LEU499  MET503  HIS524 
 TRP525 

> <Gold.Protein.RotatedAtoms>
   -3.7412  -29.5581  -29.6560 H   0  0  0  0  0  0  0  0  0  0  0  0  # atno 3525 bound_to 925 
  -12.5558  -23.7186  -30.9931 H   0  0  0  0  0  0  0  0  0  0  0  0  # atno 3677 bound_to 1070
  -10.3139  -36.7339  -34.1474 H   0  0  0  0  0  0  0  0  0  0  0  0  # atno 3781 bound_to 1176
  -14.3098  -28.1789  -37.8106 H   0  0  0  0  0  0  0  0  0  0  0  0  # atno 3847 bound_to 1247
  -13.5924  -25.3511  -39.6122 H   0  0  0  0  0  0  0  0  0  0  0  0  # atno 4507 bound_to 1931
   -2.5530  -32.2772  -36.7430 H   0  0  0  0  0  0  0  0  0  0  0  0  # atno 4531 bound_to 1957
   -9.2488  -36.4703  -32.9458 LP  0  0  0  0  0  0  0  0  0  0  0  0  # atno 5205 bound_to 1176
  -10.5461  -37.4298  -32.6949 LP  0  0  0  0  0  0  0  0  0  0  0  0  # atno 5206 bound_to 1176
  -15.6166  -28.7930  -37.0601 LP  0  0  0  0  0  0  0  0  0  0  0  0  # atno 5215 bound_to 1247
  -15.6442  -27.2645  -37.6340 LP  0  0  0  0  0  0  0  0  0  0  0  0  # atno 5216 bound_to 1247
  -13.1019  -24.0050  -40.3839 LP  0  0  0  0  0  0  0  0  0  0  0  0  # atno 5217 bound_to 1931
  -12.4967  -24.3725  -38.9124 LP  0  0  0  0  0  0  0  0  0  0  0  0  # atno 5218 bound_to 1931
  -11.1129  -23.0407  -31.3194 LP  0  0  0  0  0  0  0  0  0  0  0  0  # atno 5224 bound_to 1070
  -12.1811  -22.2693  -30.3549 LP  0  0  0  0  0  0  0  0  0  0  0  0  # atno 5225 bound_to 1070

$$$$
EZ_17|Lisa_paper2_min|sdf|4|dock3
  -GOLD-  10182016553D 1   1.00000     0.00000

 48 51  0  0  0  0  0  0  0  0  1 V2000
  -20.6263  -23.1841  -37.3647 C   0  0  0  0  0  0  0  0  0  0  0  0
  -20.7708  -23.9650  -36.2157 C   0  0  0  0  0  0  0  0  0  0  0  0
  -19.4158  -23.1535  -38.0687 C   0  0  0  0  0  0  0  0  0  0  0  0
  -19.7146  -24.7421  -35.7287 C   0  0  0  0  0  0  0  0  0  0  0  0
  -11.2445  -26.7535  -36.5866 C   0  0  0  0  0  0  0  0  0  0  0  0
   -5.5277  -29.6802  -35.1125 C   0  0  0  0  0  0  0  0  0  0  0  0
  -12.4427  -26.1478  -36.9644 C   0  0  0  0  0  0  0  0  0  0  0  0
   -4.7336  -30.8205  -35.2323 C   0  0  0  0  0  0  0  0  0  0  0  0
  -12.5098  -24.9666  -34.8578 C   0  0  0  0  0  0  0  0  0  0  0  0
   -7.4762  -31.0713  -34.7874 C   0  0  0  0  0  0  0  0  0  0  0  0
  -11.3115  -25.5725  -34.4800 C   0  0  0  0  0  0  0  0  0  0  0  0
  -18.3441  -23.9280  -37.5935 C   0  0  0  0  0  0  0  0  0  0  0  0
  -18.5186  -24.6961  -36.4457 C   0  0  0  0  0  0  0  0  0  0  0  0
   -6.8991  -29.8054  -34.8900 C   0  0  0  0  0  0  0  0  0  0  0  0
  -10.6789  -26.4659  -35.3444 C   0  0  0  0  0  0  0  0  0  0  0  0
  -13.0754  -25.2542  -36.1001 C   0  0  0  0  0  0  0  0  0  0  0  0
   -5.3106  -32.0864  -35.1297 C   0  0  0  0  0  0  0  0  0  0  0  0
   -6.6820  -32.2116  -34.9073 C   0  0  0  0  0  0  0  0  0  0  0  0
  -16.4763  -24.9106  -37.2689 C   0  0  0  0  0  0  0  0  0  0  0  0
   -8.9464  -28.3352  -35.3024 C   0  0  0  0  0  0  0  0  0  0  0  0
  -10.7291  -25.2455  -33.1433 C   0  0  0  0  0  0  0  0  0  0  0  0
  -15.0881  -25.4007  -37.3584 C   0  0  0  0  0  0  0  0  0  0  0  0
  -17.0694  -24.0741  -38.0907 N   0  0  0  0  0  0  0  0  0  0  0  0
  -17.3081  -25.3138  -36.2617 N   0  0  0  0  0  0  0  0  0  0  0  0
   -7.7056  -28.6464  -34.7676 N   0  0  0  0  0  0  0  0  0  0  0  0
   -9.4792  -27.0843  -34.9833 N   0  0  0  0  0  0  0  0  0  0  0  0
  -14.2500  -24.6599  -36.4708 O   0  0  0  0  0  0  0  0  0  0  0  0
   -9.7288  -29.5577  -36.1592 S   0  0  0  0  0  0  0  0  0  0  0  0
   -4.2742  -33.4604  -35.2901 Cl  0  0  0  0  0  0  0  0  0  0  0  0
   -7.4554  -33.7520  -34.7732 Cl  0  0  0  0  0  0  0  0  0  0  0  0
  -21.4657  -22.5911  -37.7189 H   0  0  0  0  0  0  0  0  0  0  0  0
  -21.7217  -23.9683  -35.6885 H   0  0  0  0  0  0  0  0  0  0  0  0
  -19.3144  -22.5441  -38.9610 H   0  0  0  0  0  0  0  0  0  0  0  0
  -19.8253  -25.3495  -34.8377 H   0  0  0  0  0  0  0  0  0  0  0  0
  -10.7610  -27.4491  -37.2683 H   0  0  0  0  0  0  0  0  0  0  0  0
   -5.0677  -28.6985  -35.1924 H   0  0  0  0  0  0  0  0  0  0  0  0
  -12.8781  -26.3756  -37.9336 H   0  0  0  0  0  0  0  0  0  0  0  0
   -3.6664  -30.7039  -35.4040 H   0  0  0  0  0  0  0  0  0  0  0  0
  -13.0057  -24.2701  -34.1861 H   0  0  0  0  0  0  0  0  0  0  0  0
   -8.5467  -31.1626  -34.6151 H   0  0  0  0  0  0  0  0  0  0  0  0
   -9.8397  -24.6161  -33.2610 H   0  0  0  0  0  0  0  0  0  0  0  0
  -11.4540  -24.7137  -32.5153 H   0  0  0  0  0  0  0  0  0  0  0  0
  -10.4446  -26.1562  -32.6023 H   0  0  0  0  0  0  0  0  0  0  0  0
  -15.0046  -26.4693  -37.0910 H   0  0  0  0  0  0  0  0  0  0  0  0
  -14.6787  -25.2985  -38.3792 H   0  0  0  0  0  0  0  0  0  0  0  0
  -17.0756  -25.9537  -35.5136 H   0  0  0  0  0  0  0  0  0  0  0  0
   -7.3197  -27.9293  -34.1569 H   0  0  0  0  0  0  0  0  0  0  0  0
   -8.9251  -26.5774  -34.2850 H   0  0  0  0  0  0  0  0  0  0  0  0
  1  2  2  0  0  0  0
  1  3  1  0  0  0  0
  2  4  1  0  0  0  0
  3 12  2  0  0  0  0
  4 13  2  0  0  0  0
  5  7  1  0  0  0  0
  5 15  2  0  0  0  0
  6  8  1  0  0  0  0
  6 14  2  0  0  0  0
  7 16  2  0  0  0  0
  8 17  2  0  0  0  0
  9 11  2  0  0  0  0
  9 16  1  0  0  0  0
 10 14  1  0  0  0  0
 10 18  2  0  0  0  0
 11 15  1  0  0  0  0
 11 21  1  0  0  0  0
 12 13  1  0  0  0  0
 12 23  1  0  0  0  0
 13 24  1  0  0  0  0
 14 25  1  0  0  0  0
 15 26  1  0  0  0  0
 16 27  1  0  0  0  0
 17 18  1  0  0  0  0
 17 29  1  0  0  0  0
 18 30  1  0  0  0  0
 19 22  1  0  0  0  0
 19 23  2  0  0  0  0
 19 24  1  0  0  0  0
 20 25  1  0  0  0  0
 20 26  1  0  0  0  0
 20 28  2  0  0  0  0
 22 27  1  0  0  0  0
  1 31  1  0  0  0  0
  2 32  1  0  0  0  0
  3 33  1  0  0  0  0
  4 34  1  0  0  0  0
  5 35  1  0  0  0  0
  6 36  1  0  0  0  0
  7 37  1  0  0  0  0
  8 38  1  0  0  0  0
  9 39  1  0  0  0  0
 10 40  1  0  0  0  0
 21 41  1  0  0  0  0
 21 42  1  0  0  0  0
 21 43  1  0  0  0  0
 22 44  1  0  0  0  0
 22 45  1  0  0  0  0
 24 46  1  0  0  0  0
 25 47  1  0  0  0  0
 26 48  1  0  0  0  0
M  END
> <Name>
EZ_17

> <SourceTag>
EZ_17

> <Activity_sEH>
223.4

> <Activity_FLAP>
0.6

> <Gold.Version>
5.2

> <Gold.Id.Protein>
6HGV|6HGV_protein|mol2

> <Gold.Goldscore.Fitness>
78.4028

> <Gold.Goldscore.Internal.Vdw>
-7.3088

> <Gold.Goldscore.Internal.Torsion>
-7.2407

> <Gold.Goldscore.External.Vdw>
58.6589

> <Gold.Goldscore.Internal.HBond>
0.0000

> <Gold.Goldscore.External.HBond>
0.0405

> <Gold.Goldscore.Internal.Correction>
-12.2557

> <Gold.Goldscore.Hbonds>
donor molecule, donor type, donor heavy atom, donor atom, acceptor molecule, acceptor atom, score
      P1  H  1256  3854       L1    28  0.04

> <Gold.Goldscore.Internal.Vdw.Weighted>
-7.3088

> <Gold.Goldscore.Internal.Torsion.Weighted>
-7.2407

> <Gold.Goldscore.External.Vdw.Weighted>
80.6560

> <Gold.Goldscore.Internal.HBond.Weighted>
0.0000

> <Gold.Goldscore.External.HBond.Weighted>
0.0405

> <Gold.Goldscore.Internal.Correction.Weighted>
-12.2557

> <Gold.Protein.RotatedTorsions>
[ 3781 1176 1175 1172 ] final -173.03 input   60.00 | X-H torsion
[ 3847 1247 1246 1244 ] final   44.83 input   60.00 | X-H torsion
[ 4507 1931 1930 1928 ] final  111.16 input   60.00 | X-H torsion
[ 3677 1070 1069 1066 ] final  173.19 input   60.00 | X-H torsion
[ 3525  925  924  922 ] final  170.75 input   59.99 | X-H torsion
[ 4531 1957 1955 1953 ] final  -60.49 input   60.00 | X-H torsion

> <Gold.Protein.ActiveResidues>
 PHE267  PRO268  MET310  ASP335  TRP336  MET339  TYR343  THR360  PRO361  ILE363 
 PRO371  SER374  ILE375  ASN378  PHE381  TYR383  GLN384  PHE387  LEU408  LEU417 
 MET419  LEU428  TYR466  MET469  ASN472  ASP496  VAL498  LEU499  MET503  HIS524 
 TRP525 

> <Gold.Protein.RotatedAtoms>
   -2.1556  -30.2608  -29.5302 H   0  0  0  0  0  0  0  0  0  0  0  0  # atno 3525 bound_to 925 
  -11.1065  -22.6736  -31.1105 H   0  0  0  0  0  0  0  0  0  0  0  0  # atno 3677 bound_to 1070
   -9.2513  -36.4697  -32.9601 H   0  0  0  0  0  0  0  0  0  0  0  0  # atno 3781 bound_to 1176
  -15.0577  -28.9614  -37.2178 H   0  0  0  0  0  0  0  0  0  0  0  0  # atno 3847 bound_to 1247
  -12.4325  -24.0144  -39.2375 H   0  0  0  0  0  0  0  0  0  0  0  0  # atno 4507 bound_to 1931
   -1.9719  -32.2185  -36.8524 H   0  0  0  0  0  0  0  0  0  0  0  0  # atno 4531 bound_to 1957
  -10.5377  -37.4277  -32.6855 LP  0  0  0  0  0  0  0  0  0  0  0  0  # atno 5205 bound_to 1176
  -10.3273  -36.7385  -34.1509 LP  0  0  0  0  0  0  0  0  0  0  0  0  # atno 5206 bound_to 1176
  -16.0119  -27.6492  -37.3425 LP  0  0  0  0  0  0  0  0  0  0  0  0  # atno 5215 bound_to 1247
  -14.4958  -27.6204  -37.9486 LP  0  0  0  0  0  0  0  0  0  0  0  0  # atno 5216 bound_to 1247
  -13.3509  -25.3569  -39.1883 LP  0  0  0  0  0  0  0  0  0  0  0  0  # atno 5217 bound_to 1931
  -13.4159  -24.3668  -40.4853 LP  0  0  0  0  0  0  0  0  0  0  0  0  # atno 5218 bound_to 1931
  -12.5242  -22.5166  -30.3271 LP  0  0  0  0  0  0  0  0  0  0  0  0  # atno 5224 bound_to 1070
  -12.2293  -23.8456  -31.2289 LP  0  0  0  0  0  0  0  0  0  0  0  0  # atno 5225 bound_to 1070

$$$$
EZ_17|Lisa_paper2_min|sdf|4|dock8
  -GOLD-  10182016553D 1   1.00000     0.00000

 48 51  0  0  0  0  0  0  0  0  1 V2000
  -20.7536  -25.3038  -36.6233 C   0  0  0  0  0  0  0  0  0  0  0  0
  -20.2808  -25.1627  -37.9299 C   0  0  0  0  0  0  0  0  0  0  0  0
  -19.8684  -25.4045  -35.5426 C   0  0  0  0  0  0  0  0  0  0  0  0
  -18.9100  -25.1170  -38.2049 C   0  0  0  0  0  0  0  0  0  0  0  0
  -10.8223  -27.4582  -36.3551 C   0  0  0  0  0  0  0  0  0  0  0  0
   -5.1200  -29.3986  -33.1659 C   0  0  0  0  0  0  0  0  0  0  0  0
  -12.1338  -27.1304  -36.6984 C   0  0  0  0  0  0  0  0  0  0  0  0
   -4.2182  -30.4403  -32.9492 C   0  0  0  0  0  0  0  0  0  0  0  0
  -12.2059  -25.5275  -34.8921 C   0  0  0  0  0  0  0  0  0  0  0  0
   -5.9798  -30.5471  -35.1097 C   0  0  0  0  0  0  0  0  0  0  0  0
  -10.8943  -25.8554  -34.5488 C   0  0  0  0  0  0  0  0  0  0  0  0
  -18.4879  -25.3606  -35.8005 C   0  0  0  0  0  0  0  0  0  0  0  0
  -18.0471  -25.2192  -37.1133 C   0  0  0  0  0  0  0  0  0  0  0  0
   -6.0010  -29.4519  -34.2461 C   0  0  0  0  0  0  0  0  0  0  0  0
  -10.2025  -26.8207  -35.2803 C   0  0  0  0  0  0  0  0  0  0  0  0
  -12.8257  -26.1649  -35.9669 C   0  0  0  0  0  0  0  0  0  0  0  0
   -4.1971  -31.5356  -33.8128 C   0  0  0  0  0  0  0  0  0  0  0  0
   -5.0779  -31.5889  -34.8931 C   0  0  0  0  0  0  0  0  0  0  0  0
  -16.3553  -25.3448  -35.6931 C   0  0  0  0  0  0  0  0  0  0  0  0
   -8.2614  -28.4037  -34.8073 C   0  0  0  0  0  0  0  0  0  0  0  0
  -10.2560  -25.1564  -33.3926 C   0  0  0  0  0  0  0  0  0  0  0  0
  -14.9495  -25.3723  -35.2480 C   0  0  0  0  0  0  0  0  0  0  0  0
  -17.4229  -25.4369  -34.9324 N   0  0  0  0  0  0  0  0  0  0  0  0
  -16.6793  -25.2121  -37.0147 N   0  0  0  0  0  0  0  0  0  0  0  0
   -6.9177  -28.3935  -34.4655 N   0  0  0  0  0  0  0  0  0  0  0  0
   -8.8890  -27.1643  -34.9508 N   0  0  0  0  0  0  0  0  0  0  0  0
  -14.1115  -25.8431  -36.3039 O   0  0  0  0  0  0  0  0  0  0  0  0
   -9.0141  -29.9103  -34.8710 S   0  0  0  0  0  0  0  0  0  0  0  0
   -3.0545  -32.7927  -33.4930 Cl  0  0  0  0  0  0  0  0  0  0  0  0
   -5.0983  -32.9176  -35.9990 Cl  0  0  0  0  0  0  0  0  0  0  0  0
  -21.8250  -25.3356  -36.4414 H   0  0  0  0  0  0  0  0  0  0  0  0
  -20.9912  -25.0883  -38.7497 H   0  0  0  0  0  0  0  0  0  0  0  0
  -20.2463  -25.5128  -34.5310 H   0  0  0  0  0  0  0  0  0  0  0  0
  -18.5414  -25.0065  -39.2182 H   0  0  0  0  0  0  0  0  0  0  0  0
  -10.2934  -28.2130  -36.9320 H   0  0  0  0  0  0  0  0  0  0  0  0
   -5.1293  -28.5505  -32.4859 H   0  0  0  0  0  0  0  0  0  0  0  0
  -12.6110  -27.6302  -37.5370 H   0  0  0  0  0  0  0  0  0  0  0  0
   -3.5401  -30.3826  -32.1014 H   0  0  0  0  0  0  0  0  0  0  0  0
  -12.7480  -24.7757  -34.3236 H   0  0  0  0  0  0  0  0  0  0  0  0
   -6.6685  -30.5825  -35.9515 H   0  0  0  0  0  0  0  0  0  0  0  0
   -9.4102  -24.5501  -33.7362 H   0  0  0  0  0  0  0  0  0  0  0  0
  -10.9721  -24.5011  -32.8821 H   0  0  0  0  0  0  0  0  0  0  0  0
   -9.8924  -25.8747  -32.6477 H   0  0  0  0  0  0  0  0  0  0  0  0
  -14.5872  -24.3728  -34.9474 H   0  0  0  0  0  0  0  0  0  0  0  0
  -14.8048  -26.0350  -34.3762 H   0  0  0  0  0  0  0  0  0  0  0  0
  -16.0288  -25.1234  -37.7842 H   0  0  0  0  0  0  0  0  0  0  0  0
   -6.5290  -27.4644  -34.3176 H   0  0  0  0  0  0  0  0  0  0  0  0
   -8.2938  -26.3774  -34.6714 H   0  0  0  0  0  0  0  0  0  0  0  0
  1  2  2  0  0  0  0
  1  3  1  0  0  0  0
  2  4  1  0  0  0  0
  3 12  2  0  0  0  0
  4 13  2  0  0  0  0
  5  7  1  0  0  0  0
  5 15  2  0  0  0  0
  6  8  1  0  0  0  0
  6 14  2  0  0  0  0
  7 16  2  0  0  0  0
  8 17  2  0  0  0  0
  9 11  2  0  0  0  0
  9 16  1  0  0  0  0
 10 14  1  0  0  0  0
 10 18  2  0  0  0  0
 11 15  1  0  0  0  0
 11 21  1  0  0  0  0
 12 13  1  0  0  0  0
 12 23  1  0  0  0  0
 13 24  1  0  0  0  0
 14 25  1  0  0  0  0
 15 26  1  0  0  0  0
 16 27  1  0  0  0  0
 17 18  1  0  0  0  0
 17 29  1  0  0  0  0
 18 30  1  0  0  0  0
 19 22  1  0  0  0  0
 19 23  2  0  0  0  0
 19 24  1  0  0  0  0
 20 25  1  0  0  0  0
 20 26  1  0  0  0  0
 20 28  2  0  0  0  0
 22 27  1  0  0  0  0
  1 31  1  0  0  0  0
  2 32  1  0  0  0  0
  3 33  1  0  0  0  0
  4 34  1  0  0  0  0
  5 35  1  0  0  0  0
  6 36  1  0  0  0  0
  7 37  1  0  0  0  0
  8 38  1  0  0  0  0
  9 39  1  0  0  0  0
 10 40  1  0  0  0  0
 21 41  1  0  0  0  0
 21 42  1  0  0  0  0
 21 43  1  0  0  0  0
 22 44  1  0  0  0  0
 22 45  1  0  0  0  0
 24 46  1  0  0  0  0
 25 47  1  0  0  0  0
 26 48  1  0  0  0  0
M  END
> <Name>
EZ_17

> <SourceTag>
EZ_17

> <Activity_sEH>
223.4

> <Activity_FLAP>
0.6

> <Gold.Version>
5.2

> <Gold.Id.Protein>
6HGV|6HGV_protein|mol2

> <Gold.Goldscore.Fitness>
76.1656

> <Gold.Goldscore.Internal.Vdw>
-6.9767

> <Gold.Goldscore.Internal.Torsion>
-7.7612

> <Gold.Goldscore.External.Vdw>
56.7016

> <Gold.Goldscore.Internal.HBond>
0.0000

> <Gold.Goldscore.External.HBond>
0.6832

> <Gold.Goldscore.Internal.Correction>
-12.2557

> <Gold.Goldscore.Hbonds>
donor molecule, donor type, donor heavy atom, donor atom, acceptor molecule, acceptor atom, score
      P1  H  1931  4507       L1    27  0.34

> <Gold.Goldscore.Internal.Vdw.Weighted>
-6.9767

> <Gold.Goldscore.Internal.Torsion.Weighted>
-7.7612

> <Gold.Goldscore.External.Vdw.Weighted>
77.9646

> <Gold.Goldscore.Internal.HBond.Weighted>
0.0000

> <Gold.Goldscore.External.HBond.Weighted>
0.6832

> <Gold.Goldscore.Internal.Correction.Weighted>
-12.2557

> <Gold.Protein.RotatedTorsions>
[ 3781 1176 1175 1172 ] final   93.77 input   60.00 | X-H torsion
[ 3847 1247 1246 1244 ] final  -65.66 input   60.00 | X-H torsion
[ 4507 1931 1930 1928 ] final   19.62 input   60.00 | X-H torsion
[ 3677 1070 1069 1066 ] final  -44.18 input   60.00 | X-H torsion
[ 3525  925  924  922 ] final  131.03 input   59.99 | X-H torsion
[ 4531 1957 1955 1953 ] final  -48.02 input   60.00 | X-H torsion

> <Gold.Protein.ActiveResidues>
 PHE267  PRO268  MET310  ASP335  TRP336  MET339  TYR343  THR360  PRO361  ILE363 
 PRO371  SER374  ILE375  ASN378  PHE381  TYR383  GLN384  PHE387  LEU408  LEU417 
 MET419  LEU428  TYR466  MET469  ASN472  ASP496  VAL498  LEU499  MET503  HIS524 
 TRP525 

> <Gold.Protein.RotatedAtoms>
   -2.0728  -30.2393  -30.1605 H   0  0  0  0  0  0  0  0  0  0  0  0  # atno 3525 bound_to 925 
  -12.5191  -23.7431  -31.0251 H   0  0  0  0  0  0  0  0  0  0  0  0  # atno 3677 bound_to 1070
  -10.2003  -37.2964  -32.4435 H   0  0  0  0  0  0  0  0  0  0  0  0  # atno 3781 bound_to 1176
  -16.0487  -27.7864  -37.2782 H   0  0  0  0  0  0  0  0  0  0  0  0  # atno 3847 bound_to 1247
  -13.0435  -25.1614  -38.9042 H   0  0  0  0  0  0  0  0  0  0  0  0  # atno 4507 bound_to 1931
   -2.1702  -32.1952  -36.8143 H   0  0  0  0  0  0  0  0  0  0  0  0  # atno 4531 bound_to 1957
  -10.6321  -37.0040  -33.9850 LP  0  0  0  0  0  0  0  0  0  0  0  0  # atno 5205 bound_to 1176
   -9.2771  -36.3298  -33.3716 LP  0  0  0  0  0  0  0  0  0  0  0  0  # atno 5206 bound_to 1176
  -14.5965  -27.5009  -37.9547 LP  0  0  0  0  0  0  0  0  0  0  0  0  # atno 5215 bound_to 1247
  -14.9130  -28.9518  -37.2755 LP  0  0  0  0  0  0  0  0  0  0  0  0  # atno 5216 bound_to 1247
  -13.6269  -24.7631  -40.3701 LP  0  0  0  0  0  0  0  0  0  0  0  0  # atno 5217 bound_to 1931
  -12.5245  -23.8055  -39.6392 LP  0  0  0  0  0  0  0  0  0  0  0  0  # atno 5218 bound_to 1931
  -11.1015  -22.9917  -31.2971 LP  0  0  0  0  0  0  0  0  0  0  0  0  # atno 5224 bound_to 1070
  -12.2295  -22.2935  -30.3449 LP  0  0  0  0  0  0  0  0  0  0  0  0  # atno 5225 bound_to 1070

$$$$
EZ_17|Lisa_paper2_min|sdf|4|dock9
  -GOLD-  10182016563D 1   1.00000     0.00000

 48 51  0  0  0  0  0  0  0  0  1 V2000
  -20.7748  -25.2515  -36.9230 C   0  0  0  0  0  0  0  0  0  0  0  0
  -20.2765  -25.0077  -38.2049 C   0  0  0  0  0  0  0  0  0  0  0  0
  -19.9124  -25.3910  -35.8283 C   0  0  0  0  0  0  0  0  0  0  0  0
  -18.9023  -24.8944  -38.4401 C   0  0  0  0  0  0  0  0  0  0  0  0
  -10.8416  -27.2060  -36.5152 C   0  0  0  0  0  0  0  0  0  0  0  0
   -5.2466  -29.3704  -33.2419 C   0  0  0  0  0  0  0  0  0  0  0  0
  -12.1382  -26.8454  -36.8814 C   0  0  0  0  0  0  0  0  0  0  0  0
   -4.3656  -30.4328  -33.0404 C   0  0  0  0  0  0  0  0  0  0  0  0
  -12.2785  -25.3940  -34.9550 C   0  0  0  0  0  0  0  0  0  0  0  0
   -6.1294  -30.4742  -35.2013 C   0  0  0  0  0  0  0  0  0  0  0  0
  -10.9818  -25.7547  -34.5888 C   0  0  0  0  0  0  0  0  0  0  0  0
  -18.5287  -25.2803  -36.0464 C   0  0  0  0  0  0  0  0  0  0  0  0
  -18.0624  -25.0369  -37.3352 C   0  0  0  0  0  0  0  0  0  0  0  0
   -6.1286  -29.3910  -34.3224 C   0  0  0  0  0  0  0  0  0  0  0  0
  -10.2633  -26.6607  -35.3690 C   0  0  0  0  0  0  0  0  0  0  0  0
  -12.8568  -25.9394  -36.1013 C   0  0  0  0  0  0  0  0  0  0  0  0
   -4.3664  -31.5160  -33.9193 C   0  0  0  0  0  0  0  0  0  0  0  0
   -5.2484  -31.5365  -34.9998 C   0  0  0  0  0  0  0  0  0  0  0  0
  -16.4014  -25.1945  -35.8822 C   0  0  0  0  0  0  0  0  0  0  0  0
   -8.3581  -28.2889  -34.9039 C   0  0  0  0  0  0  0  0  0  0  0  0
  -10.3881  -25.1547  -33.3557 C   0  0  0  0  0  0  0  0  0  0  0  0
  -15.0067  -25.2003  -35.4030 C   0  0  0  0  0  0  0  0  0  0  0  0
  -17.4827  -25.3750  -35.1574 N   0  0  0  0  0  0  0  0  0  0  0  0
  -16.6986  -24.9869  -37.2004 N   0  0  0  0  0  0  0  0  0  0  0  0
   -7.0241  -28.3116  -34.5264 N   0  0  0  0  0  0  0  0  0  0  0  0
   -8.9642  -27.0358  -35.0177 N   0  0  0  0  0  0  0  0  0  0  0  0
  -14.1280  -25.5854  -36.4606 O   0  0  0  0  0  0  0  0  0  0  0  0
   -9.1298  -29.7807  -35.0437 S   0  0  0  0  0  0  0  0  0  0  0  0
   -3.2491  -32.7999  -33.6178 Cl  0  0  0  0  0  0  0  0  0  0  0  0
   -5.2954  -32.8490  -36.1243 Cl  0  0  0  0  0  0  0  0  0  0  0  0
  -21.8481  -25.3339  -36.7718 H   0  0  0  0  0  0  0  0  0  0  0  0
  -20.9694  -24.9052  -39.0365 H   0  0  0  0  0  0  0  0  0  0  0  0
  -20.3100  -25.5793  -34.8361 H   0  0  0  0  0  0  0  0  0  0  0  0
  -18.5140  -24.7042  -39.4342 H   0  0  0  0  0  0  0  0  0  0  0  0
  -10.2916  -27.9140  -37.1306 H   0  0  0  0  0  0  0  0  0  0  0  0
   -5.2388  -28.5319  -32.5501 H   0  0  0  0  0  0  0  0  0  0  0  0
  -12.5830  -27.2734  -37.7757 H   0  0  0  0  0  0  0  0  0  0  0  0
   -3.6863  -30.4005  -32.1922 H   0  0  0  0  0  0  0  0  0  0  0  0
  -12.8414  -24.6884  -34.3487 H   0  0  0  0  0  0  0  0  0  0  0  0
   -6.8189  -30.4839  -36.0432 H   0  0  0  0  0  0  0  0  0  0  0  0
  -11.1390  -24.5585  -32.8250 H   0  0  0  0  0  0  0  0  0  0  0  0
  -10.0149  -25.9319  -32.6779 H   0  0  0  0  0  0  0  0  0  0  0  0
   -9.5367  -24.5082  -33.6009 H   0  0  0  0  0  0  0  0  0  0  0  0
  -14.6858  -24.2075  -35.0400 H   0  0  0  0  0  0  0  0  0  0  0  0
  -14.8606  -25.9045  -34.5645 H   0  0  0  0  0  0  0  0  0  0  0  0
  -16.0338  -24.8243  -37.9452 H   0  0  0  0  0  0  0  0  0  0  0  0
   -6.6266  -27.3945  -34.3337 H   0  0  0  0  0  0  0  0  0  0  0  0
   -8.3658  -26.2688  -34.6935 H   0  0  0  0  0  0  0  0  0  0  0  0
  1  2  2  0  0  0  0
  1  3  1  0  0  0  0
  2  4  1  0  0  0  0
  3 12  2  0  0  0  0
  4 13  2  0  0  0  0
  5  7  1  0  0  0  0
  5 15  2  0  0  0  0
  6  8  1  0  0  0  0
  6 14  2  0  0  0  0
  7 16  2  0  0  0  0
  8 17  2  0  0  0  0
  9 11  2  0  0  0  0
  9 16  1  0  0  0  0
 10 14  1  0  0  0  0
 10 18  2  0  0  0  0
 11 15  1  0  0  0  0
 11 21  1  0  0  0  0
 12 13  1  0  0  0  0
 12 23  1  0  0  0  0
 13 24  1  0  0  0  0
 14 25  1  0  0  0  0
 15 26  1  0  0  0  0
 16 27  1  0  0  0  0
 17 18  1  0  0  0  0
 17 29  1  0  0  0  0
 18 30  1  0  0  0  0
 19 22  1  0  0  0  0
 19 23  2  0  0  0  0
 19 24  1  0  0  0  0
 20 25  1  0  0  0  0
 20 26  1  0  0  0  0
 20 28  2  0  0  0  0
 22 27  1  0  0  0  0
  1 31  1  0  0  0  0
  2 32  1  0  0  0  0
  3 33  1  0  0  0  0
  4 34  1  0  0  0  0
  5 35  1  0  0  0  0
  6 36  1  0  0  0  0
  7 37  1  0  0  0  0
  8 38  1  0  0  0  0
  9 39  1  0  0  0  0
 10 40  1  0  0  0  0
 21 41  1  0  0  0  0
 21 42  1  0  0  0  0
 21 43  1  0  0  0  0
 22 44  1  0  0  0  0
 22 45  1  0  0  0  0
 24 46  1  0  0  0  0
 25 47  1  0  0  0  0
 26 48  1  0  0  0  0
M  END
> <Name>
EZ_17

> <SourceTag>
EZ_17

> <Activity_sEH>
223.4

> <Activity_FLAP>
0.6

> <Gold.Version>
5.2

> <Gold.Id.Protein>
6HGV|6HGV_protein|mol2

> <Gold.Goldscore.Fitness>
75.5732

> <Gold.Goldscore.Internal.Vdw>
-6.0546

> <Gold.Goldscore.Internal.Torsion>
-8.0037

> <Gold.Goldscore.External.Vdw>
55.6360

> <Gold.Goldscore.Internal.HBond>
0.0000

> <Gold.Goldscore.External.HBond>
0.8762

> <Gold.Goldscore.Internal.Correction>
-12.2557

> <Gold.Goldscore.Hbonds>
donor molecule, donor type, donor heavy atom, donor atom, acceptor molecule, acceptor atom, score
      P1  H  1247  3847       L1    27  0.05
      P1  H  1931  4507       L1    27  0.39

> <Gold.Goldscore.Internal.Vdw.Weighted>
-6.0546

> <Gold.Goldscore.Internal.Torsion.Weighted>
-8.0037

> <Gold.Goldscore.External.Vdw.Weighted>
76.4995

> <Gold.Goldscore.Internal.HBond.Weighted>
0.0000

> <Gold.Goldscore.External.HBond.Weighted>
0.8762

> <Gold.Goldscore.Internal.Correction.Weighted>
-12.2557

> <Gold.Protein.RotatedTorsions>
[ 3781 1176 1175 1172 ] final -139.90 input   60.00 | X-H torsion
[ 3847 1247 1246 1244 ] final -149.03 input   60.00 | X-H torsion
[ 4507 1931 1930 1928 ] final   22.20 input   60.00 | X-H torsion
[ 3677 1070 1069 1066 ] final  -35.71 input   60.00 | X-H torsion
[ 3525  925  924  922 ] final  -60.48 input   59.99 | X-H torsion
[ 4531 1957 1955 1953 ] final  -34.92 input   60.00 | X-H torsion

> <Gold.Protein.ActiveResidues>
 PHE267  PRO268  MET310  ASP335  TRP336  MET339  TYR343  THR360  PRO361  ILE363 
 PRO371  SER374  ILE375  ASN378  PHE381  TYR383  GLN384  PHE387  LEU408  LEU417 
 MET419  LEU428  TYR466  MET469  ASN472  ASP496  VAL498  LEU499  MET503  HIS524 
 TRP525 

> <Gold.Protein.RotatedAtoms>
   -3.7030  -29.5854  -29.5395 H   0  0  0  0  0  0  0  0  0  0  0  0  # atno 3525 bound_to 925 
  -12.6081  -23.6763  -30.9433 H   0  0  0  0  0  0  0  0  0  0  0  0  # atno 3677 bound_to 1070
   -9.3130  -36.3203  -33.4689 H   0  0  0  0  0  0  0  0  0  0  0  0  # atno 3781 bound_to 1176
  -15.1078  -27.2195  -37.8644 H   0  0  0  0  0  0  0  0  0  0  0  0  # atno 3847 bound_to 1247
  -13.0150  -25.1361  -38.8860 H   0  0  0  0  0  0  0  0  0  0  0  0  # atno 4507 bound_to 1931
   -2.3790  -32.2182  -36.7750 H   0  0  0  0  0  0  0  0  0  0  0  0  # atno 4531 bound_to 1957
  -10.1154  -37.2519  -32.4030 LP  0  0  0  0  0  0  0  0  0  0  0  0  # atno 5205 bound_to 1176
  -10.6874  -37.0649  -33.9210 LP  0  0  0  0  0  0  0  0  0  0  0  0  # atno 5206 bound_to 1176
  -14.4653  -28.6820  -37.5544 LP  0  0  0  0  0  0  0  0  0  0  0  0  # atno 5215 bound_to 1247
  -15.9920  -28.3417  -37.0854 LP  0  0  0  0  0  0  0  0  0  0  0  0  # atno 5216 bound_to 1247
  -13.6399  -24.7983  -40.3501 LP  0  0  0  0  0  0  0  0  0  0  0  0  # atno 5217 bound_to 1931
  -12.5402  -23.7958  -39.6775 LP  0  0  0  0  0  0  0  0  0  0  0  0  # atno 5218 bound_to 1931
  -11.1358  -23.1155  -31.3507 LP  0  0  0  0  0  0  0  0  0  0  0  0  # atno 5224 bound_to 1070
  -12.1056  -22.2371  -30.3737 LP  0  0  0  0  0  0  0  0  0  0  0  0  # atno 5225 bound_to 1070

$$$$
EZ_17|Lisa_paper2_min|sdf|4|dock4
  -GOLD-  10182016553D 1   1.00000     0.00000

 48 51  0  0  0  0  0  0  0  0  1 V2000
   -3.8144  -32.5417  -30.6886 C   0  0  0  0  0  0  0  0  0  0  0  0
   -3.1195  -33.0117  -31.8054 C   0  0  0  0  0  0  0  0  0  0  0  0
   -4.9242  -31.6993  -30.8313 C   0  0  0  0  0  0  0  0  0  0  0  0
   -3.5064  -32.6588  -33.1024 C   0  0  0  0  0  0  0  0  0  0  0  0
  -10.1258  -27.3763  -36.4117 C   0  0  0  0  0  0  0  0  0  0  0  0
  -16.1907  -25.3104  -36.2405 C   0  0  0  0  0  0  0  0  0  0  0  0
   -9.0046  -28.0997  -36.0053 C   0  0  0  0  0  0  0  0  0  0  0  0
  -17.5327  -25.3843  -36.6137 C   0  0  0  0  0  0  0  0  0  0  0  0
   -8.6989  -26.5831  -34.1496 C   0  0  0  0  0  0  0  0  0  0  0  0
  -15.5776  -24.8625  -38.5341 C   0  0  0  0  0  0  0  0  0  0  0  0
   -9.8201  -25.8597  -34.5561 C   0  0  0  0  0  0  0  0  0  0  0  0
   -5.3268  -31.3346  -32.1271 C   0  0  0  0  0  0  0  0  0  0  0  0
   -4.6143  -31.8191  -33.2205 C   0  0  0  0  0  0  0  0  0  0  0  0
  -15.2131  -25.0494  -37.2007 C   0  0  0  0  0  0  0  0  0  0  0  0
  -10.5335  -26.2564  -35.6872 C   0  0  0  0  0  0  0  0  0  0  0  0
   -8.2911  -27.7032  -34.8742 C   0  0  0  0  0  0  0  0  0  0  0  0
  -17.8972  -25.1973  -37.9471 C   0  0  0  0  0  0  0  0  0  0  0  0
  -16.9195  -24.9365  -38.9073 C   0  0  0  0  0  0  0  0  0  0  0  0
   -6.2945  -30.5244  -33.8496 C   0  0  0  0  0  0  0  0  0  0  0  0
  -12.9551  -25.9559  -36.4240 C   0  0  0  0  0  0  0  0  0  0  0  0
  -10.2334  -24.6642  -33.7607 C   0  0  0  0  0  0  0  0  0  0  0  0
   -7.1887  -29.8082  -34.7783 C   0  0  0  0  0  0  0  0  0  0  0  0
   -6.3668  -30.5324  -32.5374 N   0  0  0  0  0  0  0  0  0  0  0  0
   -5.2554  -31.2849  -34.3088 N   0  0  0  0  0  0  0  0  0  0  0  0
  -13.8497  -24.9737  -36.8209 N   0  0  0  0  0  0  0  0  0  0  0  0
  -11.6579  -25.5437  -36.1114 N   0  0  0  0  0  0  0  0  0  0  0  0
   -7.1922  -28.4128  -34.4754 O   0  0  0  0  0  0  0  0  0  0  0  0
  -13.4984  -27.5494  -36.5012 S   0  0  0  0  0  0  0  0  0  0  0  0
  -19.5755  -25.3042  -38.3468 Cl  0  0  0  0  0  0  0  0  0  0  0  0
  -17.3082  -24.6981  -40.5749 Cl  0  0  0  0  0  0  0  0  0  0  0  0
   -3.4897  -32.8340  -29.6931 H   0  0  0  0  0  0  0  0  0  0  0  0
   -2.2605  -33.6632  -31.6645 H   0  0  0  0  0  0  0  0  0  0  0  0
   -5.4577  -31.3406  -29.9569 H   0  0  0  0  0  0  0  0  0  0  0  0
   -2.9689  -33.0235  -33.9703 H   0  0  0  0  0  0  0  0  0  0  0  0
  -10.6734  -27.6945  -37.2956 H   0  0  0  0  0  0  0  0  0  0  0  0
  -15.9177  -25.4560  -35.1985 H   0  0  0  0  0  0  0  0  0  0  0  0
   -8.6923  -28.9716  -36.5737 H   0  0  0  0  0  0  0  0  0  0  0  0
  -18.2812  -25.5870  -35.8517 H   0  0  0  0  0  0  0  0  0  0  0  0
   -8.1403  -26.2763  -33.2686 H   0  0  0  0  0  0  0  0  0  0  0  0
  -14.8103  -24.6606  -39.2788 H   0  0  0  0  0  0  0  0  0  0  0  0
   -9.3803  -24.2711  -33.1961 H   0  0  0  0  0  0  0  0  0  0  0  0
  -10.6185  -23.8699  -34.4115 H   0  0  0  0  0  0  0  0  0  0  0  0
  -11.0344  -24.9161  -33.0551 H   0  0  0  0  0  0  0  0  0  0  0  0
   -6.8774  -29.9259  -35.8317 H   0  0  0  0  0  0  0  0  0  0  0  0
   -8.2292  -30.1738  -34.7148 H   0  0  0  0  0  0  0  0  0  0  0  0
   -5.0027  -31.4303  -35.2774 H   0  0  0  0  0  0  0  0  0  0  0  0
  -13.4496  -24.0394  -36.8777 H   0  0  0  0  0  0  0  0  0  0  0  0
  -11.4877  -24.5551  -36.3241 H   0  0  0  0  0  0  0  0  0  0  0  0
  1  2  2  0  0  0  0
  1  3  1  0  0  0  0
  2  4  1  0  0  0  0
  3 12  2  0  0  0  0
  4 13  2  0  0  0  0
  5  7  1  0  0  0  0
  5 15  2  0  0  0  0
  6  8  1  0  0  0  0
  6 14  2  0  0  0  0
  7 16  2  0  0  0  0
  8 17  2  0  0  0  0
  9 11  2  0  0  0  0
  9 16  1  0  0  0  0
 10 14  1  0  0  0  0
 10 18  2  0  0  0  0
 11 15  1  0  0  0  0
 11 21  1  0  0  0  0
 12 13  1  0  0  0  0
 12 23  1  0  0  0  0
 13 24  1  0  0  0  0
 14 25  1  0  0  0  0
 15 26  1  0  0  0  0
 16 27  1  0  0  0  0
 17 18  1  0  0  0  0
 17 29  1  0  0  0  0
 18 30  1  0  0  0  0
 19 22  1  0  0  0  0
 19 23  2  0  0  0  0
 19 24  1  0  0  0  0
 20 25  1  0  0  0  0
 20 26  1  0  0  0  0
 20 28  2  0  0  0  0
 22 27  1  0  0  0  0
  1 31  1  0  0  0  0
  2 32  1  0  0  0  0
  3 33  1  0  0  0  0
  4 34  1  0  0  0  0
  5 35  1  0  0  0  0
  6 36  1  0  0  0  0
  7 37  1  0  0  0  0
  8 38  1  0  0  0  0
  9 39  1  0  0  0  0
 10 40  1  0  0  0  0
 21 41  1  0  0  0  0
 21 42  1  0  0  0  0
 21 43  1  0  0  0  0
 22 44  1  0  0  0  0
 22 45  1  0  0  0  0
 24 46  1  0  0  0  0
 25 47  1  0  0  0  0
 26 48  1  0  0  0  0
M  END
> <Name>
EZ_17

> <SourceTag>
EZ_17

> <Activity_sEH>
223.4

> <Activity_FLAP>
0.6

> <Gold.Version>
5.2

> <Gold.Id.Protein>
6HGV|6HGV_protein|mol2

> <Gold.Goldscore.Fitness>
70.3484

> <Gold.Goldscore.Internal.Vdw>
-2.9198

> <Gold.Goldscore.Internal.Torsion>
-12.7956

> <Gold.Goldscore.External.Vdw>
52.1204

> <Gold.Goldscore.Internal.HBond>
0.0000

> <Gold.Goldscore.External.HBond>
2.1425

> <Gold.Goldscore.Internal.Correction>
-12.2557

> <Gold.Goldscore.Hbonds>
donor molecule, donor type, donor heavy atom, donor atom, acceptor molecule, acceptor atom, score
      P1  H  1247  3847       L1    28  0.01
      L1  H    25    47       P1   854  0.34
      L1  H    26    48       P1   854  0.01

> <Gold.Goldscore.Internal.Vdw.Weighted>
-2.9198

> <Gold.Goldscore.Internal.Torsion.Weighted>
-12.7956

> <Gold.Goldscore.External.Vdw.Weighted>
71.6655

> <Gold.Goldscore.Internal.HBond.Weighted>
0.0000

> <Gold.Goldscore.External.HBond.Weighted>
2.1425

> <Gold.Goldscore.Internal.Correction.Weighted>
-12.2557

> <Gold.Protein.RotatedTorsions>
[ 3781 1176 1175 1172 ] final   33.87 input   60.00 | X-H torsion
[ 3847 1247 1246 1244 ] final  140.75 input   60.00 | X-H torsion
[ 4507 1931 1930 1928 ] final  108.59 input   60.00 | X-H torsion
[ 3677 1070 1069 1066 ] final -174.57 input   60.00 | X-H torsion
[ 3525  925  924  922 ] final   58.33 input   59.99 | X-H torsion
[ 4531 1957 1955 1953 ] final   -6.34 input   60.00 | X-H torsion

> <Gold.Protein.ActiveResidues>
 PHE267  PRO268  MET310  ASP335  TRP336  MET339  TYR343  THR360  PRO361  ILE363 
 PRO371  SER374  ILE375  ASN378  PHE381  TYR383  GLN384  PHE387  LEU408  LEU417 
 MET419  LEU428  TYR466  MET469  ASN472  ASP496  VAL498  LEU499  MET503  HIS524 
 TRP525 

> <Gold.Protein.RotatedAtoms>
   -2.8299  -29.8443  -30.8693 H   0  0  0  0  0  0  0  0  0  0  0  0  # atno 3525 bound_to 925 
  -11.0899  -22.8429  -31.2151 H   0  0  0  0  0  0  0  0  0  0  0  0  # atno 3677 bound_to 1070
  -10.7905  -37.4227  -33.1574 H   0  0  0  0  0  0  0  0  0  0  0  0  # atno 3781 bound_to 1176
  -14.3377  -27.9721  -37.8788 H   0  0  0  0  0  0  0  0  0  0  0  0  # atno 3847 bound_to 1247
  -12.4315  -24.0404  -39.2046 H   0  0  0  0  0  0  0  0  0  0  0  0  # atno 4507 bound_to 1931
   -2.7841  -32.4282  -36.7016 H   0  0  0  0  0  0  0  0  0  0  0  0  # atno 4531 bound_to 1957
   -9.8732  -36.4574  -34.0927 LP  0  0  0  0  0  0  0  0  0  0  0  0  # atno 5205 bound_to 1176
   -9.4417  -36.7491  -32.5450 LP  0  0  0  0  0  0  0  0  0  0  0  0  # atno 5206 bound_to 1176
  -15.4244  -28.8963  -37.0960 LP  0  0  0  0  0  0  0  0  0  0  0  0  # atno 5215 bound_to 1247
  -15.8083  -27.3695  -37.5294 LP  0  0  0  0  0  0  0  0  0  0  0  0  # atno 5216 bound_to 1247
  -13.3761  -25.3653  -39.2211 LP  0  0  0  0  0  0  0  0  0  0  0  0  # atno 5217 bound_to 1931
  -13.3917  -24.3322  -40.4856 LP  0  0  0  0  0  0  0  0  0  0  0  0  # atno 5218 bound_to 1931
  -12.3730  -22.3839  -30.3258 LP  0  0  0  0  0  0  0  0  0  0  0  0  # atno 5224 bound_to 1070
  -12.3972  -23.8078  -31.1248 LP  0  0  0  0  0  0  0  0  0  0  0  0  # atno 5225 bound_to 1070

$$$$
EZ_175a|Lisa_paper2_min|sdf|5|dock1
  -GOLD-  10182016563D 1   1.00000     0.00000

 48 51  0  0  0  0  0  0  0  0  1 V2000
   -3.8559  -30.2163  -33.7516 C   0  0  0  0  0  0  0  0  0  0  0  0
   -4.1583  -31.4432  -34.3467 C   0  0  0  0  0  0  0  0  0  0  0  0
   -4.7362  -29.1313  -33.8479 C   0  0  0  0  0  0  0  0  0  0  0  0
   -5.3482  -31.6314  -35.0578 C   0  0  0  0  0  0  0  0  0  0  0  0
  -12.8396  -26.8511  -36.5496 C   0  0  0  0  0  0  0  0  0  0  0  0
  -17.6030  -23.7455  -38.3538 C   0  0  0  0  0  0  0  0  0  0  0  0
  -11.5190  -27.2996  -36.5324 C   0  0  0  0  0  0  0  0  0  0  0  0
  -18.7037  -23.3954  -39.1358 C   0  0  0  0  0  0  0  0  0  0  0  0
  -12.3597  -25.3670  -34.7046 C   0  0  0  0  0  0  0  0  0  0  0  0
  -19.0831  -24.6834  -36.6904 C   0  0  0  0  0  0  0  0  0  0  0  0
  -11.0390  -25.8155  -34.6873 C   0  0  0  0  0  0  0  0  0  0  0  0
   -5.9361  -29.3024  -34.5589 C   0  0  0  0  0  0  0  0  0  0  0  0
   -6.2097  -30.5371  -35.1408 C   0  0  0  0  0  0  0  0  0  0  0  0
  -13.2600  -25.8847  -35.6357 C   0  0  0  0  0  0  0  0  0  0  0  0
  -17.7927  -24.3895  -37.1311 C   0  0  0  0  0  0  0  0  0  0  0  0
  -10.6186  -26.7819  -35.6012 C   0  0  0  0  0  0  0  0  0  0  0  0
  -19.9941  -23.6892  -38.6951 C   0  0  0  0  0  0  0  0  0  0  0  0
  -20.1838  -24.3332  -37.4724 C   0  0  0  0  0  0  0  0  0  0  0  0
   -7.8347  -29.0820  -35.5109 C   0  0  0  0  0  0  0  0  0  0  0  0
  -15.4149  -25.1866  -36.7706 C   0  0  0  0  0  0  0  0  0  0  0  0
  -10.0888  -25.2504  -33.6837 C   0  0  0  0  0  0  0  0  0  0  0  0
   -9.1200  -28.5780  -36.0297 C   0  0  0  0  0  0  0  0  0  0  0  0
   -6.9567  -28.4113  -34.7992 N   0  0  0  0  0  0  0  0  0  0  0  0
   -7.4301  -30.3671  -35.7427 N   0  0  0  0  0  0  0  0  0  0  0  0
  -14.5810  -25.4363  -35.6533 N   0  0  0  0  0  0  0  0  0  0  0  0
  -16.6759  -24.7452  -36.3385 N   0  0  0  0  0  0  0  0  0  0  0  0
  -15.0782  -25.3363  -37.9408 O   0  0  0  0  0  0  0  0  0  0  0  0
   -9.3275  -27.2327  -35.5983 O   0  0  0  0  0  0  0  0  0  0  0  0
  -21.3167  -23.2271  -39.7077 Cl  0  0  0  0  0  0  0  0  0  0  0  0
  -21.7575  -24.7219  -36.8715 Cl  0  0  0  0  0  0  0  0  0  0  0  0
   -2.9233  -30.1012  -33.2049 H   0  0  0  0  0  0  0  0  0  0  0  0
   -3.4555  -32.2680  -34.2569 H   0  0  0  0  0  0  0  0  0  0  0  0
   -4.4920  -28.1825  -33.3811 H   0  0  0  0  0  0  0  0  0  0  0  0
   -5.5850  -32.5832  -35.5193 H   0  0  0  0  0  0  0  0  0  0  0  0
  -13.5325  -27.2616  -37.2797 H   0  0  0  0  0  0  0  0  0  0  0  0
  -16.6017  -23.5134  -38.7073 H   0  0  0  0  0  0  0  0  0  0  0  0
  -11.1980  -28.0524  -37.2472 H   0  0  0  0  0  0  0  0  0  0  0  0
  -18.5370  -22.8953  -40.0867 H   0  0  0  0  0  0  0  0  0  0  0  0
  -12.6860  -24.6133  -33.9912 H   0  0  0  0  0  0  0  0  0  0  0  0
  -19.2248  -25.1847  -35.7351 H   0  0  0  0  0  0  0  0  0  0  0  0
  -10.3791  -24.2268  -33.4195 H   0  0  0  0  0  0  0  0  0  0  0  0
  -10.0714  -25.8558  -32.7690 H   0  0  0  0  0  0  0  0  0  0  0  0
   -9.0635  -25.2329  -34.0742 H   0  0  0  0  0  0  0  0  0  0  0  0
   -9.1579  -28.5898  -37.1338 H   0  0  0  0  0  0  0  0  0  0  0  0
   -9.9739  -29.1845  -35.6787 H   0  0  0  0  0  0  0  0  0  0  0  0
   -7.9382  -31.0696  -36.2639 H   0  0  0  0  0  0  0  0  0  0  0  0
  -15.0045  -25.2647  -34.7353 H   0  0  0  0  0  0  0  0  0  0  0  0
  -16.8093  -24.6687  -35.3334 H   0  0  0  0  0  0  0  0  0  0  0  0
  1  2  2  0  0  0  0
  1  3  1  0  0  0  0
  2  4  1  0  0  0  0
  3 12  2  0  0  0  0
  4 13  2  0  0  0  0
  5  7  2  0  0  0  0
  5 14  1  0  0  0  0
  6  8  1  0  0  0  0
  6 15  2  0  0  0  0
  7 16  1  0  0  0  0
  8 17  2  0  0  0  0
  9 11  1  0  0  0  0
  9 14  2  0  0  0  0
 10 15  1  0  0  0  0
 10 18  2  0  0  0  0
 11 16  2  0  0  0  0
 11 21  1  0  0  0  0
 12 13  1  0  0  0  0
 12 23  1  0  0  0  0
 13 24  1  0  0  0  0
 14 25  1  0  0  0  0
 15 26  1  0  0  0  0
 16 28  1  0  0  0  0
 17 18  1  0  0  0  0
 17 29  1  0  0  0  0
 18 30  1  0  0  0  0
 19 22  1  0  0  0  0
 19 23  2  0  0  0  0
 19 24  1  0  0  0  0
 20 25  1  0  0  0  0
 20 26  1  0  0  0  0
 20 27  2  0  0  0  0
 22 28  1  0  0  0  0
  1 31  1  0  0  0  0
  2 32  1  0  0  0  0
  3 33  1  0  0  0  0
  4 34  1  0  0  0  0
  5 35  1  0  0  0  0
  6 36  1  0  0  0  0
  7 37  1  0  0  0  0
  8 38  1  0  0  0  0
  9 39  1  0  0  0  0
 10 40  1  0  0  0  0
 21 41  1  0  0  0  0
 21 42  1  0  0  0  0
 21 43  1  0  0  0  0
 22 44  1  0  0  0  0
 22 45  1  0  0  0  0
 24 46  1  0  0  0  0
 25 47  1  0  0  0  0
 26 48  1  0  0  0  0
M  END
> <Name>
EZ_175a

> <SourceTag>
EZ_175a

> <Activity_sEH>
4.9

> <Activity_FLAP>
0.4

> <Gold.Version>
5.2

> <Gold.Id.Protein>
6HGV|6HGV_protein|mol2

> <Gold.Goldscore.Fitness>
81.2597

> <Gold.Goldscore.Internal.Vdw>
-4.1818

> <Gold.Goldscore.Internal.Torsion>
-7.3073

> <Gold.Goldscore.External.Vdw>
59.8003

> <Gold.Goldscore.Internal.HBond>
0.0000

> <Gold.Goldscore.External.HBond>
0.1176

> <Gold.Goldscore.Internal.Correction>
-10.4058

> <Gold.Goldscore.Hbonds>
donor molecule, donor type, donor heavy atom, donor atom, acceptor molecule, acceptor atom, score
      P1  H  1931  4507       L1    27  0.06

> <Gold.Goldscore.Internal.Vdw.Weighted>
-4.1818

> <Gold.Goldscore.Internal.Torsion.Weighted>
-7.3073

> <Gold.Goldscore.External.Vdw.Weighted>
82.2254

> <Gold.Goldscore.Internal.HBond.Weighted>
0.0000

> <Gold.Goldscore.External.HBond.Weighted>
0.1176

> <Gold.Goldscore.Internal.Correction.Weighted>
-10.4058

> <Gold.Protein.RotatedTorsions>
[ 3781 1176 1175 1172 ] final   87.17 input   60.00 | X-H torsion
[ 3847 1247 1246 1244 ] final  -50.03 input   60.00 | X-H torsion
[ 4507 1931 1930 1928 ] final   -6.20 input   60.00 | X-H torsion
[ 3677 1070 1069 1066 ] final  -80.71 input   60.00 | X-H torsion
[ 3525  925  924  922 ] final   10.24 input   59.99 | X-H torsion
[ 4531 1957 1955 1953 ] final  -22.13 input   60.00 | X-H torsion

> <Gold.Protein.ActiveResidues>
 PHE267  PRO268  MET310  ASP335  TRP336  MET339  TYR343  THR360  PRO361  ILE363 
 PRO371  SER374  ILE375  ASN378  PHE381  TYR383  GLN384  PHE387  LEU408  LEU417 
 MET419  LEU428  TYR466  MET469  ASN472  ASP496  VAL498  LEU499  MET503  HIS524 
 TRP525 

> <Gold.Protein.RotatedAtoms>
   -3.4939  -29.5793  -30.6026 H   0  0  0  0  0  0  0  0  0  0  0  0  # atno 3525 bound_to 925 
  -12.0224  -23.8378  -31.3232 H   0  0  0  0  0  0  0  0  0  0  0  0  # atno 3677 bound_to 1070
  -10.2884  -37.3380  -32.4893 H   0  0  0  0  0  0  0  0  0  0  0  0  # atno 3781 bound_to 1176
  -16.0658  -28.0214  -37.1816 H   0  0  0  0  0  0  0  0  0  0  0  0  # atno 3847 bound_to 1247
  -13.3208  -25.3424  -39.1599 H   0  0  0  0  0  0  0  0  0  0  0  0  # atno 4507 bound_to 1931
   -2.5727  -32.2865  -36.7394 H   0  0  0  0  0  0  0  0  0  0  0  0  # atno 4531 bound_to 1957
  -10.5668  -36.9390  -34.0422 LP  0  0  0  0  0  0  0  0  0  0  0  0  # atno 5205 bound_to 1176
   -9.2537  -36.3528  -33.2683 LP  0  0  0  0  0  0  0  0  0  0  0  0  # atno 5206 bound_to 1176
  -14.7960  -27.3405  -37.9378 LP  0  0  0  0  0  0  0  0  0  0  0  0  # atno 5215 bound_to 1247
  -14.6964  -28.8756  -37.3897 LP  0  0  0  0  0  0  0  0  0  0  0  0  # atno 5216 bound_to 1247
  -13.4399  -24.4028  -40.4832 LP  0  0  0  0  0  0  0  0  0  0  0  0  # atno 5217 bound_to 1931
  -12.4322  -23.9835  -39.2686 LP  0  0  0  0  0  0  0  0  0  0  0  0  # atno 5218 bound_to 1931
  -11.1673  -22.4958  -30.9823 LP  0  0  0  0  0  0  0  0  0  0  0  0  # atno 5224 bound_to 1070
  -12.6638  -22.6941  -30.3595 LP  0  0  0  0  0  0  0  0  0  0  0  0  # atno 5225 bound_to 1070

$$$$
EZ_175a|Lisa_paper2_min|sdf|5|dock6
  -GOLD-  10182016573D 1   1.00000     0.00000

 48 51  0  0  0  0  0  0  0  0  1 V2000
   -3.8620  -31.6406  -33.5590 C   0  0  0  0  0  0  0  0  0  0  0  0
   -4.4894  -32.4055  -34.5450 C   0  0  0  0  0  0  0  0  0  0  0  0
   -4.3457  -30.3726  -33.2129 C   0  0  0  0  0  0  0  0  0  0  0  0
   -5.6203  -31.9337  -35.2197 C   0  0  0  0  0  0  0  0  0  0  0  0
  -11.6231  -25.7274  -35.9147 C   0  0  0  0  0  0  0  0  0  0  0  0
  -18.2068  -25.2275  -35.4520 C   0  0  0  0  0  0  0  0  0  0  0  0
  -10.4691  -26.2841  -35.3635 C   0  0  0  0  0  0  0  0  0  0  0  0
  -19.5892  -25.0726  -35.3498 C   0  0  0  0  0  0  0  0  0  0  0  0
  -12.8865  -27.6700  -35.2313 C   0  0  0  0  0  0  0  0  0  0  0  0
  -18.3341  -24.7956  -37.8257 C   0  0  0  0  0  0  0  0  0  0  0  0
  -11.7325  -28.2267  -34.6801 C   0  0  0  0  0  0  0  0  0  0  0  0
   -5.4808  -29.8827  -33.8808 C   0  0  0  0  0  0  0  0  0  0  0  0
   -6.0844  -30.6684  -34.8587 C   0  0  0  0  0  0  0  0  0  0  0  0
  -12.8319  -26.4204  -35.8486 C   0  0  0  0  0  0  0  0  0  0  0  0
  -17.5791  -25.0889  -36.6901 C   0  0  0  0  0  0  0  0  0  0  0  0
  -10.5237  -27.5337  -34.7462 C   0  0  0  0  0  0  0  0  0  0  0  0
  -20.3441  -24.7793  -36.4855 C   0  0  0  0  0  0  0  0  0  0  0  0
  -19.7165  -24.6408  -37.7234 C   0  0  0  0  0  0  0  0  0  0  0  0
   -7.1352  -28.7389  -34.5980 C   0  0  0  0  0  0  0  0  0  0  0  0
  -15.3215  -25.9589  -35.9383 C   0  0  0  0  0  0  0  0  0  0  0  0
  -11.8092  -29.5653  -34.0230 C   0  0  0  0  0  0  0  0  0  0  0  0
   -8.1530  -27.6989  -34.8376 C   0  0  0  0  0  0  0  0  0  0  0  0
   -6.1474  -28.6880  -33.7327 N   0  0  0  0  0  0  0  0  0  0  0  0
   -7.1397  -29.9120  -35.3001 N   0  0  0  0  0  0  0  0  0  0  0  0
  -13.9860  -25.8632  -36.4001 N   0  0  0  0  0  0  0  0  0  0  0  0
  -16.1767  -25.2454  -36.7933 N   0  0  0  0  0  0  0  0  0  0  0  0
  -15.6720  -26.5761  -34.9376 O   0  0  0  0  0  0  0  0  0  0  0  0
   -9.3828  -28.0647  -34.2108 O   0  0  0  0  0  0  0  0  0  0  0  0
  -22.0530  -24.6024  -36.2942 Cl  0  0  0  0  0  0  0  0  0  0  0  0
  -20.5976  -24.2802  -39.1665 Cl  0  0  0  0  0  0  0  0  0  0  0  0
   -2.9850  -32.0349  -33.0519 H   0  0  0  0  0  0  0  0  0  0  0  0
   -4.0911  -33.3861  -34.7943 H   0  0  0  0  0  0  0  0  0  0  0  0
   -3.8513  -29.7868  -32.4447 H   0  0  0  0  0  0  0  0  0  0  0  0
   -6.1092  -32.5264  -35.9844 H   0  0  0  0  0  0  0  0  0  0  0  0
  -11.5687  -24.7529  -36.3934 H   0  0  0  0  0  0  0  0  0  0  0  0
  -17.6277  -25.4544  -34.5606 H   0  0  0  0  0  0  0  0  0  0  0  0
   -9.5306  -25.7389  -35.4183 H   0  0  0  0  0  0  0  0  0  0  0  0
  -20.0614  -25.1826  -34.3766 H   0  0  0  0  0  0  0  0  0  0  0  0
  -13.8285  -28.2116  -35.1790 H   0  0  0  0  0  0  0  0  0  0  0  0
  -17.8390  -24.6901  -38.7890 H   0  0  0  0  0  0  0  0  0  0  0  0
  -11.5416  -30.3544  -34.7354 H   0  0  0  0  0  0  0  0  0  0  0  0
  -11.1296  -29.6250  -33.1639 H   0  0  0  0  0  0  0  0  0  0  0  0
  -12.8198  -29.7641  -33.6447 H   0  0  0  0  0  0  0  0  0  0  0  0
   -7.8474  -26.7157  -34.4368 H   0  0  0  0  0  0  0  0  0  0  0  0
   -8.3492  -27.5527  -35.9147 H   0  0  0  0  0  0  0  0  0  0  0  0
   -7.8020  -30.1779  -36.0170 H   0  0  0  0  0  0  0  0  0  0  0  0
  -13.8491  -25.3110  -37.2533 H   0  0  0  0  0  0  0  0  0  0  0  0
  -15.7411  -24.7823  -37.5868 H   0  0  0  0  0  0  0  0  0  0  0  0
  1  2  2  0  0  0  0
  1  3  1  0  0  0  0
  2  4  1  0  0  0  0
  3 12  2  0  0  0  0
  4 13  2  0  0  0  0
  5  7  2  0  0  0  0
  5 14  1  0  0  0  0
  6  8  1  0  0  0  0
  6 15  2  0  0  0  0
  7 16  1  0  0  0  0
  8 17  2  0  0  0  0
  9 11  1  0  0  0  0
  9 14  2  0  0  0  0
 10 15  1  0  0  0  0
 10 18  2  0  0  0  0
 11 16  2  0  0  0  0
 11 21  1  0  0  0  0
 12 13  1  0  0  0  0
 12 23  1  0  0  0  0
 13 24  1  0  0  0  0
 14 25  1  0  0  0  0
 15 26  1  0  0  0  0
 16 28  1  0  0  0  0
 17 18  1  0  0  0  0
 17 29  1  0  0  0  0
 18 30  1  0  0  0  0
 19 22  1  0  0  0  0
 19 23  2  0  0  0  0
 19 24  1  0  0  0  0
 20 25  1  0  0  0  0
 20 26  1  0  0  0  0
 20 27  2  0  0  0  0
 22 28  1  0  0  0  0
  1 31  1  0  0  0  0
  2 32  1  0  0  0  0
  3 33  1  0  0  0  0
  4 34  1  0  0  0  0
  5 35  1  0  0  0  0
  6 36  1  0  0  0  0
  7 37  1  0  0  0  0
  8 38  1  0  0  0  0
  9 39  1  0  0  0  0
 10 40  1  0  0  0  0
 21 41  1  0  0  0  0
 21 42  1  0  0  0  0
 21 43  1  0  0  0  0
 22 44  1  0  0  0  0
 22 45  1  0  0  0  0
 24 46  1  0  0  0  0
 25 47  1  0  0  0  0
 26 48  1  0  0  0  0
M  END
> <Name>
EZ_175a

> <SourceTag>
EZ_175a

> <Activity_sEH>
4.9

> <Activity_FLAP>
0.4

> <Gold.Version>
5.2

> <Gold.Id.Protein>
6HGV|6HGV_protein|mol2

> <Gold.Goldscore.Fitness>
78.8518

> <Gold.Goldscore.Internal.Vdw>
-5.5033

> <Gold.Goldscore.Internal.Torsion>
-6.1313

> <Gold.Goldscore.External.Vdw>
57.9422

> <Gold.Goldscore.Internal.HBond>
0.0000

> <Gold.Goldscore.External.HBond>
0.4102

> <Gold.Goldscore.Internal.Correction>
-10.4058

> <Gold.Goldscore.Hbonds>
donor molecule, donor type, donor heavy atom, donor atom, acceptor molecule, acceptor atom, score
      L1  H    25    47       P1  1931  0.21

> <Gold.Goldscore.Internal.Vdw.Weighted>
-5.5033

> <Gold.Goldscore.Internal.Torsion.Weighted>
-6.1313

> <Gold.Goldscore.External.Vdw.Weighted>
79.6705

> <Gold.Goldscore.Internal.HBond.Weighted>
0.0000

> <Gold.Goldscore.External.HBond.Weighted>
0.4102

> <Gold.Goldscore.Internal.Correction.Weighted>
-10.4058

> <Gold.Protein.RotatedTorsions>
[ 3781 1176 1175 1172 ] final   42.79 input   60.00 | X-H torsion
[ 3847 1247 1246 1244 ] final   -6.98 input   60.00 | X-H torsion
[ 4507 1931 1930 1928 ] final  103.49 input   60.00 | X-H torsion
[ 3677 1070 1069 1066 ] final  -97.53 input   60.00 | X-H torsion
[ 3525  925  924  922 ] final  -41.90 input   59.99 | X-H torsion
[ 4531 1957 1955 1953 ] final   -9.11 input   60.00 | X-H torsion

> <Gold.Protein.ActiveResidues>
 PHE267  PRO268  MET310  ASP335  TRP336  MET339  TYR343  THR360  PRO361  ILE363 
 PRO371  SER374  ILE375  ASN378  PHE381  TYR383  GLN384  PHE387  LEU408  LEU417 
 MET419  LEU428  TYR466  MET469  ASN472  ASP496  VAL498  LEU499  MET503  HIS524 
 TRP525 

> <Gold.Protein.RotatedAtoms>
   -3.7697  -29.5298  -29.8289 H   0  0  0  0  0  0  0  0  0  0  0  0  # atno 3525 bound_to 925 
  -11.7712  -23.7696  -31.4079 H   0  0  0  0  0  0  0  0  0  0  0  0  # atno 3677 bound_to 1070
  -10.7430  -37.4421  -33.0210 H   0  0  0  0  0  0  0  0  0  0  0  0  # atno 3781 bound_to 1176
  -15.7907  -28.6378  -37.0538 H   0  0  0  0  0  0  0  0  0  0  0  0  # atno 3847 bound_to 1247
  -12.4332  -24.0952  -39.1419 H   0  0  0  0  0  0  0  0  0  0  0  0  # atno 4507 bound_to 1931
   -2.7500  -32.3991  -36.7076 H   0  0  0  0  0  0  0  0  0  0  0  0  # atno 4531 bound_to 1957
   -9.9966  -36.5230  -34.1374 LP  0  0  0  0  0  0  0  0  0  0  0  0  # atno 5205 bound_to 1176
   -9.3661  -36.6641  -32.6376 LP  0  0  0  0  0  0  0  0  0  0  0  0  # atno 5206 bound_to 1176
  -15.4432  -27.2022  -37.7367 LP  0  0  0  0  0  0  0  0  0  0  0  0  # atno 5215 bound_to 1247
  -14.3262  -28.3932  -37.7195 LP  0  0  0  0  0  0  0  0  0  0  0  0  # atno 5216 bound_to 1247
  -13.4243  -25.3775  -39.2887 LP  0  0  0  0  0  0  0  0  0  0  0  0  # atno 5217 bound_to 1931
  -13.3417  -24.2649  -40.4812 LP  0  0  0  0  0  0  0  0  0  0  0  0  # atno 5218 bound_to 1931
  -11.3077  -22.3261  -30.8166 LP  0  0  0  0  0  0  0  0  0  0  0  0  # atno 5224 bound_to 1070
  -12.7764  -22.9325  -30.4399 LP  0  0  0  0  0  0  0  0  0  0  0  0  # atno 5225 bound_to 1070

$$$$
EZ_175a|Lisa_paper2_min|sdf|5|dock10
  -GOLD-  10182016583D 1   1.00000     0.00000

 48 51  0  0  0  0  0  0  0  0  1 V2000
   -3.3809  -30.8882  -33.3042 C   0  0  0  0  0  0  0  0  0  0  0  0
   -3.6434  -32.0315  -34.0624 C   0  0  0  0  0  0  0  0  0  0  0  0
   -4.2683  -29.8046  -33.3021 C   0  0  0  0  0  0  0  0  0  0  0  0
   -4.7988  -32.1347  -34.8441 C   0  0  0  0  0  0  0  0  0  0  0  0
  -11.8963  -26.8679  -36.7674 C   0  0  0  0  0  0  0  0  0  0  0  0
  -17.8744  -24.1185  -37.4904 C   0  0  0  0  0  0  0  0  0  0  0  0
  -10.6710  -27.4939  -36.5392 C   0  0  0  0  0  0  0  0  0  0  0  0
  -18.9906  -24.0095  -38.3198 C   0  0  0  0  0  0  0  0  0  0  0  0
  -11.3387  -25.1800  -35.1312 C   0  0  0  0  0  0  0  0  0  0  0  0
  -16.4675  -24.4469  -39.4269 C   0  0  0  0  0  0  0  0  0  0  0  0
  -10.1133  -25.8060  -34.9029 C   0  0  0  0  0  0  0  0  0  0  0  0
   -5.4340  -29.8910  -34.0819 C   0  0  0  0  0  0  0  0  0  0  0  0
   -5.6681  -31.0435  -34.8267 C   0  0  0  0  0  0  0  0  0  0  0  0
  -12.2302  -25.7109  -36.0633 C   0  0  0  0  0  0  0  0  0  0  0  0
  -16.6128  -24.3372  -38.0439 C   0  0  0  0  0  0  0  0  0  0  0  0
   -9.7794  -26.9631  -35.6069 C   0  0  0  0  0  0  0  0  0  0  0  0
  -18.8453  -24.1194  -39.7028 C   0  0  0  0  0  0  0  0  0  0  0  0
  -17.5837  -24.3380  -40.2562 C   0  0  0  0  0  0  0  0  0  0  0  0
   -7.2916  -29.5623  -35.0825 C   0  0  0  0  0  0  0  0  0  0  0  0
  -14.3661  -25.2863  -37.3584 C   0  0  0  0  0  0  0  0  0  0  0  0
   -9.1711  -25.2240  -33.9015 C   0  0  0  0  0  0  0  0  0  0  0  0
   -8.5585  -29.0039  -35.5905 C   0  0  0  0  0  0  0  0  0  0  0  0
   -6.4531  -28.9823  -34.2532 N   0  0  0  0  0  0  0  0  0  0  0  0
   -6.8628  -30.8055  -35.4564 N   0  0  0  0  0  0  0  0  0  0  0  0
  -13.4560  -25.0850  -36.2920 N   0  0  0  0  0  0  0  0  0  0  0  0
  -15.4808  -24.4469  -37.2023 N   0  0  0  0  0  0  0  0  0  0  0  0
  -14.1984  -26.0793  -38.2794 O   0  0  0  0  0  0  0  0  0  0  0  0
   -8.5822  -27.5895  -35.3957 O   0  0  0  0  0  0  0  0  0  0  0  0
  -20.2665  -23.9785  -40.6765 Cl  0  0  0  0  0  0  0  0  0  0  0  0
  -17.3400  -24.4851  -41.9615 Cl  0  0  0  0  0  0  0  0  0  0  0  0
   -2.4745  -30.8380  -32.7062 H   0  0  0  0  0  0  0  0  0  0  0  0
   -2.9359  -32.8571  -34.0462 H   0  0  0  0  0  0  0  0  0  0  0  0
   -4.0554  -28.9212  -32.7086 H   0  0  0  0  0  0  0  0  0  0  0  0
   -5.0046  -33.0217  -35.4323 H   0  0  0  0  0  0  0  0  0  0  0  0
  -12.5833  -27.2906  -37.4962 H   0  0  0  0  0  0  0  0  0  0  0  0
  -17.9985  -24.0298  -36.4142 H   0  0  0  0  0  0  0  0  0  0  0  0
  -10.4170  -28.3949  -37.0911 H   0  0  0  0  0  0  0  0  0  0  0  0
  -19.9659  -23.8376  -37.8711 H   0  0  0  0  0  0  0  0  0  0  0  0
  -11.5977  -24.2778  -34.5814 H   0  0  0  0  0  0  0  0  0  0  0  0
  -15.4810  -24.6189  -39.8527 H   0  0  0  0  0  0  0  0  0  0  0  0
   -8.8608  -25.9901  -33.1813 H   0  0  0  0  0  0  0  0  0  0  0  0
   -8.2753  -24.8189  -34.3883 H   0  0  0  0  0  0  0  0  0  0  0  0
   -9.6374  -24.3965  -33.3523 H   0  0  0  0  0  0  0  0  0  0  0  0
   -8.6986  -29.2001  -36.6686 H   0  0  0  0  0  0  0  0  0  0  0  0
   -9.4359  -29.4341  -35.0754 H   0  0  0  0  0  0  0  0  0  0  0  0
   -7.3398  -31.4392  -36.0843 H   0  0  0  0  0  0  0  0  0  0  0  0
  -13.7351  -24.3862  -35.5953 H   0  0  0  0  0  0  0  0  0  0  0  0
  -15.4804  -23.8401  -36.3864 H   0  0  0  0  0  0  0  0  0  0  0  0
  1  2  2  0  0  0  0
  1  3  1  0  0  0  0
  2  4  1  0  0  0  0
  3 12  2  0  0  0  0
  4 13  2  0  0  0  0
  5  7  2  0  0  0  0
  5 14  1  0  0  0  0
  6  8  1  0  0  0  0
  6 15  2  0  0  0  0
  7 16  1  0  0  0  0
  8 17  2  0  0  0  0
  9 11  1  0  0  0  0
  9 14  2  0  0  0  0
 10 15  1  0  0  0  0
 10 18  2  0  0  0  0
 11 16  2  0  0  0  0
 11 21  1  0  0  0  0
 12 13  1  0  0  0  0
 12 23  1  0  0  0  0
 13 24  1  0  0  0  0
 14 25  1  0  0  0  0
 15 26  1  0  0  0  0
 16 28  1  0  0  0  0
 17 18  1  0  0  0  0
 17 29  1  0  0  0  0
 18 30  1  0  0  0  0
 19 22  1  0  0  0  0
 19 23  2  0  0  0  0
 19 24  1  0  0  0  0
 20 25  1  0  0  0  0
 20 26  1  0  0  0  0
 20 27  2  0  0  0  0
 22 28  1  0  0  0  0
  1 31  1  0  0  0  0
  2 32  1  0  0  0  0
  3 33  1  0  0  0  0
  4 34  1  0  0  0  0
  5 35  1  0  0  0  0
  6 36  1  0  0  0  0
  7 37  1  0  0  0  0
  8 38  1  0  0  0  0
  9 39  1  0  0  0  0
 10 40  1  0  0  0  0
 21 41  1  0  0  0  0
 21 42  1  0  0  0  0
 21 43  1  0  0  0  0
 22 44  1  0  0  0  0
 22 45  1  0  0  0  0
 24 46  1  0  0  0  0
 25 47  1  0  0  0  0
 26 48  1  0  0  0  0
M  END
> <Name>
EZ_175a

> <SourceTag>
EZ_175a

> <Activity_sEH>
4.9

> <Activity_FLAP>
0.4

> <Gold.Version>
5.2

> <Gold.Id.Protein>
6HGV|6HGV_protein|mol2

> <Gold.Goldscore.Fitness>
76.2877

> <Gold.Goldscore.Internal.Vdw>
-11.3616

> <Gold.Goldscore.Internal.Torsion>
-4.5762

> <Gold.Goldscore.External.Vdw>
57.6204

> <Gold.Goldscore.Internal.HBond>
0.0000

> <Gold.Goldscore.External.HBond>
3.0064

> <Gold.Goldscore.Internal.Correction>
-9.9910

> <Gold.Goldscore.Hbonds>
donor molecule, donor type, donor heavy atom, donor atom, acceptor molecule, acceptor atom, score
      L1  H    25    47       P1   853  0.42
      L1  H    26    48       P1   853  0.08

> <Gold.Goldscore.Internal.Vdw.Weighted>
-11.3616

> <Gold.Goldscore.Internal.Torsion.Weighted>
-4.5762

> <Gold.Goldscore.External.Vdw.Weighted>
79.2280

> <Gold.Goldscore.Internal.HBond.Weighted>
0.0000

> <Gold.Goldscore.External.HBond.Weighted>
3.0064

> <Gold.Goldscore.Internal.Correction.Weighted>
-9.9910

> <Gold.Protein.RotatedTorsions>
[ 3781 1176 1175 1172 ] final   13.44 input   60.00 | X-H torsion
[ 3847 1247 1246 1244 ] final  -68.26 input   60.00 | X-H torsion
[ 4507 1931 1930 1928 ] final  103.34 input   60.00 | X-H torsion
[ 3677 1070 1069 1066 ] final -124.55 input   60.00 | X-H torsion
[ 3525  925  924  922 ] final  -30.03 input   59.99 | X-H torsion
[ 4531 1957 1955 1953 ] final  -35.37 input   60.00 | X-H torsion

> <Gold.Protein.ActiveResidues>
 PHE267  PRO268  MET310  ASP335  TRP336  MET339  TYR343  THR360  PRO361  ILE363 
 PRO371  SER374  ILE375  ASN378  PHE381  TYR383  GLN384  PHE387  LEU408  LEU417 
 MET419  LEU428  TYR466  MET469  ASN472  ASP496  VAL498  LEU499  MET503  HIS524 
 TRP525 

> <Gold.Protein.RotatedAtoms>
   -3.7657  -29.5139  -30.0219 H   0  0  0  0  0  0  0  0  0  0  0  0  # atno 3525 bound_to 925 
  -11.4082  -23.5289  -31.4493 H   0  0  0  0  0  0  0  0  0  0  0  0  # atno 3677 bound_to 1070
  -10.8294  -37.3301  -33.4738 H   0  0  0  0  0  0  0  0  0  0  0  0  # atno 3781 bound_to 1176
  -16.0396  -27.7490  -37.2961 H   0  0  0  0  0  0  0  0  0  0  0  0  # atno 3847 bound_to 1247
  -12.4333  -24.0969  -39.1401 H   0  0  0  0  0  0  0  0  0  0  0  0  # atno 4507 bound_to 1931
   -2.3719  -32.2166  -36.7763 H   0  0  0  0  0  0  0  0  0  0  0  0  # atno 4531 bound_to 1957
   -9.6104  -36.3477  -33.9175 LP  0  0  0  0  0  0  0  0  0  0  0  0  # atno 5205 bound_to 1176
   -9.6653  -36.9521  -32.4015 LP  0  0  0  0  0  0  0  0  0  0  0  0  # atno 5206 bound_to 1176
  -14.5673  -27.5322  -37.9543 LP  0  0  0  0  0  0  0  0  0  0  0  0  # atno 5215 bound_to 1247
  -14.9515  -28.9583  -37.2579 LP  0  0  0  0  0  0  0  0  0  0  0  0  # atno 5216 bound_to 1247
  -13.4257  -25.3777  -39.2907 LP  0  0  0  0  0  0  0  0  0  0  0  0  # atno 5217 bound_to 1931
  -13.3402  -24.2629  -40.4809 LP  0  0  0  0  0  0  0  0  0  0  0  0  # atno 5218 bound_to 1931
  -11.6418  -22.1801  -30.5693 LP  0  0  0  0  0  0  0  0  0  0  0  0  # atno 5224 bound_to 1070
  -12.8078  -23.3208  -30.6456 LP  0  0  0  0  0  0  0  0  0  0  0  0  # atno 5225 bound_to 1070

$$$$
EZ_175a|Lisa_paper2_min|sdf|5|dock4
  -GOLD-  10182016573D 1   1.00000     0.00000

 48 51  0  0  0  0  0  0  0  0  1 V2000
   -3.4005  -30.9545  -33.2583 C   0  0  0  0  0  0  0  0  0  0  0  0
   -3.7546  -32.1585  -33.8714 C   0  0  0  0  0  0  0  0  0  0  0  0
   -4.2134  -29.8198  -33.3735 C   0  0  0  0  0  0  0  0  0  0  0  0
   -4.9308  -32.2736  -34.6198 C   0  0  0  0  0  0  0  0  0  0  0  0
  -11.7478  -26.8117  -36.9757 C   0  0  0  0  0  0  0  0  0  0  0  0
  -17.7500  -24.0714  -37.7604 C   0  0  0  0  0  0  0  0  0  0  0  0
  -10.5379  -27.4468  -36.6960 C   0  0  0  0  0  0  0  0  0  0  0  0
  -18.8757  -24.0191  -38.5824 C   0  0  0  0  0  0  0  0  0  0  0  0
  -11.3162  -25.2139  -35.2157 C   0  0  0  0  0  0  0  0  0  0  0  0
  -16.3931  -24.6979  -39.6587 C   0  0  0  0  0  0  0  0  0  0  0  0
  -10.1062  -25.8489  -34.9359 C   0  0  0  0  0  0  0  0  0  0  0  0
   -5.3987  -29.9173  -34.1220 C   0  0  0  0  0  0  0  0  0  0  0  0
   -5.7248  -31.1308  -34.7210 C   0  0  0  0  0  0  0  0  0  0  0  0
  -12.1370  -25.6952  -36.2356 C   0  0  0  0  0  0  0  0  0  0  0  0
  -16.5086  -24.4108  -38.2986 C   0  0  0  0  0  0  0  0  0  0  0  0
   -9.7170  -26.9654  -35.6761 C   0  0  0  0  0  0  0  0  0  0  0  0
  -18.7602  -24.3064  -39.9425 C   0  0  0  0  0  0  0  0  0  0  0  0
  -17.5188  -24.6457  -40.4806 C   0  0  0  0  0  0  0  0  0  0  0  0
   -7.2511  -29.5821  -35.1298 C   0  0  0  0  0  0  0  0  0  0  0  0
  -14.2800  -25.3487  -37.5419 C   0  0  0  0  0  0  0  0  0  0  0  0
   -9.2399  -25.3202  -33.8408 C   0  0  0  0  0  0  0  0  0  0  0  0
   -8.4885  -29.0017  -35.6838 C   0  0  0  0  0  0  0  0  0  0  0  0
   -6.3583  -28.9674  -34.3867 N   0  0  0  0  0  0  0  0  0  0  0  0
   -6.9142  -30.8872  -35.3586 N   0  0  0  0  0  0  0  0  0  0  0  0
  -13.3473  -25.0603  -36.5158 N   0  0  0  0  0  0  0  0  0  0  0  0
  -15.3668  -24.4629  -37.4647 N   0  0  0  0  0  0  0  0  0  0  0  0
  -14.1508  -26.2425  -38.3723 O   0  0  0  0  0  0  0  0  0  0  0  0
   -8.5340  -27.6000  -35.4152 O   0  0  0  0  0  0  0  0  0  0  0  0
  -20.1921  -24.2275  -40.9077 Cl  0  0  0  0  0  0  0  0  0  0  0  0
  -17.3123  -25.0142  -42.1571 Cl  0  0  0  0  0  0  0  0  0  0  0  0
   -2.4801  -30.8965  -32.6826 H   0  0  0  0  0  0  0  0  0  0  0  0
   -3.1036  -33.0231  -33.7663 H   0  0  0  0  0  0  0  0  0  0  0  0
   -3.9295  -28.8894  -32.8924 H   0  0  0  0  0  0  0  0  0  0  0  0
   -5.2078  -33.2074  -35.0954 H   0  0  0  0  0  0  0  0  0  0  0  0
  -12.3795  -27.1956  -37.7728 H   0  0  0  0  0  0  0  0  0  0  0  0
  -17.8508  -23.8442  -36.7023 H   0  0  0  0  0  0  0  0  0  0  0  0
  -10.2406  -28.3160  -37.2764 H   0  0  0  0  0  0  0  0  0  0  0  0
  -19.8349  -23.7513  -38.1462 H   0  0  0  0  0  0  0  0  0  0  0  0
  -11.6183  -24.3433  -34.6377 H   0  0  0  0  0  0  0  0  0  0  0  0
  -15.4223  -24.9634  -40.0724 H   0  0  0  0  0  0  0  0  0  0  0  0
   -9.7111  -24.4494  -33.3701 H   0  0  0  0  0  0  0  0  0  0  0  0
   -9.0650  -26.0817  -33.0706 H   0  0  0  0  0  0  0  0  0  0  0  0
   -8.2558  -25.0211  -34.2228 H   0  0  0  0  0  0  0  0  0  0  0  0
   -8.5612  -29.1400  -36.7775 H   0  0  0  0  0  0  0  0  0  0  0  0
   -9.3927  -29.4624  -35.2474 H   0  0  0  0  0  0  0  0  0  0  0  0
   -7.4456  -31.5562  -35.9002 H   0  0  0  0  0  0  0  0  0  0  0  0
  -13.5944  -24.2811  -35.8965 H   0  0  0  0  0  0  0  0  0  0  0  0
  -15.3353  -23.7708  -36.7204 H   0  0  0  0  0  0  0  0  0  0  0  0
  1  2  2  0  0  0  0
  1  3  1  0  0  0  0
  2  4  1  0  0  0  0
  3 12  2  0  0  0  0
  4 13  2  0  0  0  0
  5  7  2  0  0  0  0
  5 14  1  0  0  0  0
  6  8  1  0  0  0  0
  6 15  2  0  0  0  0
  7 16  1  0  0  0  0
  8 17  2  0  0  0  0
  9 11  1  0  0  0  0
  9 14  2  0  0  0  0
 10 15  1  0  0  0  0
 10 18  2  0  0  0  0
 11 16  2  0  0  0  0
 11 21  1  0  0  0  0
 12 13  1  0  0  0  0
 12 23  1  0  0  0  0
 13 24  1  0  0  0  0
 14 25  1  0  0  0  0
 15 26  1  0  0  0  0
 16 28  1  0  0  0  0
 17 18  1  0  0  0  0
 17 29  1  0  0  0  0
 18 30  1  0  0  0  0
 19 22  1  0  0  0  0
 19 23  2  0  0  0  0
 19 24  1  0  0  0  0
 20 25  1  0  0  0  0
 20 26  1  0  0  0  0
 20 27  2  0  0  0  0
 22 28  1  0  0  0  0
  1 31  1  0  0  0  0
  2 32  1  0  0  0  0
  3 33  1  0  0  0  0
  4 34  1  0  0  0  0
  5 35  1  0  0  0  0
  6 36  1  0  0  0  0
  7 37  1  0  0  0  0
  8 38  1  0  0  0  0
  9 39  1  0  0  0  0
 10 40  1  0  0  0  0
 21 41  1  0  0  0  0
 21 42  1  0  0  0  0
 21 43  1  0  0  0  0
 22 44  1  0  0  0  0
 22 45  1  0  0  0  0
 24 46  1  0  0  0  0
 25 47  1  0  0  0  0
 26 48  1  0  0  0  0
M  END
> <Name>
EZ_175a

> <SourceTag>
EZ_175a

> <Activity_sEH>
4.9

> <Activity_FLAP>
0.4

> <Gold.Version>
5.2

> <Gold.Id.Protein>
6HGV|6HGV_protein|mol2

> <Gold.Goldscore.Fitness>
75.0276

> <Gold.Goldscore.Internal.Vdw>
-13.5909

> <Gold.Goldscore.Internal.Torsion>
-4.0709

> <Gold.Goldscore.External.Vdw>
55.1294

> <Gold.Goldscore.Internal.HBond>
0.0000

> <Gold.Goldscore.External.HBond>
6.4807

> <Gold.Goldscore.Internal.Correction>
-10.4058

> <Gold.Goldscore.Hbonds>
donor molecule, donor type, donor heavy atom, donor atom, acceptor molecule, acceptor atom, score
      L1  H    25    47       P1   853  0.91
      L1  H    26    48       P1   853  0.17

> <Gold.Goldscore.Internal.Vdw.Weighted>
-13.5909

> <Gold.Goldscore.Internal.Torsion.Weighted>
-4.0709

> <Gold.Goldscore.External.Vdw.Weighted>
75.8029

> <Gold.Goldscore.Internal.HBond.Weighted>
0.0000

> <Gold.Goldscore.External.HBond.Weighted>
6.4807

> <Gold.Goldscore.Internal.Correction.Weighted>
-10.4058

> <Gold.Protein.RotatedTorsions>
[ 3781 1176 1175 1172 ] final   74.44 input   60.00 | X-H torsion
[ 3847 1247 1246 1244 ] final  -74.31 input   60.00 | X-H torsion
[ 4507 1931 1930 1928 ] final  102.61 input   60.00 | X-H torsion
[ 3677 1070 1069 1066 ] final -122.49 input   60.00 | X-H torsion
[ 3525  925  924  922 ] final  -12.42 input   59.99 | X-H torsion
[ 4531 1957 1955 1953 ] final  -12.94 input   60.00 | X-H torsion

> <Gold.Protein.ActiveResidues>
 PHE267  PRO268  MET310  ASP335  TRP336  MET339  TYR343  THR360  PRO361  ILE363 
 PRO371  SER374  ILE375  ASN378  PHE381  TYR383  GLN384  PHE387  LEU408  LEU417 
 MET419  LEU428  TYR466  MET469  ASN472  ASP496  VAL498  LEU499  MET503  HIS524 
 TRP525 

> <Gold.Protein.RotatedAtoms>
   -3.6930  -29.5202  -30.2990 H   0  0  0  0  0  0  0  0  0  0  0  0  # atno 3525 bound_to 925 
  -11.4326  -23.5520  -31.4505 H   0  0  0  0  0  0  0  0  0  0  0  0  # atno 3677 bound_to 1070
  -10.4482  -37.4008  -32.6062 H   0  0  0  0  0  0  0  0  0  0  0  0  # atno 3781 bound_to 1176
  -16.0117  -27.6647  -37.3394 H   0  0  0  0  0  0  0  0  0  0  0  0  # atno 3847 bound_to 1247
  -12.4340  -24.1051  -39.1314 H   0  0  0  0  0  0  0  0  0  0  0  0  # atno 4507 bound_to 1931
   -2.7005  -32.3618  -36.7164 H   0  0  0  0  0  0  0  0  0  0  0  0  # atno 4531 bound_to 1957
  -10.4216  -36.8119  -34.1230 LP  0  0  0  0  0  0  0  0  0  0  0  0  # atno 5205 bound_to 1176
   -9.2380  -36.4167  -33.0698 LP  0  0  0  0  0  0  0  0  0  0  0  0  # atno 5206 bound_to 1176
  -14.5042  -27.6090  -37.9496 LP  0  0  0  0  0  0  0  0  0  0  0  0  # atno 5215 bound_to 1247
  -15.0427  -28.9664  -37.2190 LP  0  0  0  0  0  0  0  0  0  0  0  0  # atno 5216 bound_to 1247
  -13.4324  -25.3789  -39.3007 LP  0  0  0  0  0  0  0  0  0  0  0  0  # atno 5217 bound_to 1931
  -13.3329  -24.2535  -40.4797 LP  0  0  0  0  0  0  0  0  0  0  0  0  # atno 5218 bound_to 1931
  -11.6129  -22.1850  -30.5862 LP  0  0  0  0  0  0  0  0  0  0  0  0  # atno 5224 bound_to 1070
  -12.8122  -23.2926  -30.6274 LP  0  0  0  0  0  0  0  0  0  0  0  0  # atno 5225 bound_to 1070

$$$$
EZ_175a|Lisa_paper2_min|sdf|5|dock2
  -GOLD-  10182016563D 1   1.00000     0.00000

 48 51  0  0  0  0  0  0  0  0  1 V2000
   -3.4109  -31.0492  -33.4875 C   0  0  0  0  0  0  0  0  0  0  0  0
   -3.8067  -32.2519  -34.0772 C   0  0  0  0  0  0  0  0  0  0  0  0
   -4.1908  -29.8927  -33.6139 C   0  0  0  0  0  0  0  0  0  0  0  0
   -4.9930  -32.3439  -34.8127 C   0  0  0  0  0  0  0  0  0  0  0  0
  -11.7450  -26.7554  -37.0552 C   0  0  0  0  0  0  0  0  0  0  0  0
  -17.7750  -24.0612  -37.6340 C   0  0  0  0  0  0  0  0  0  0  0  0
  -10.5296  -27.3973  -36.8181 C   0  0  0  0  0  0  0  0  0  0  0  0
  -18.9135  -23.9812  -38.4360 C   0  0  0  0  0  0  0  0  0  0  0  0
  -11.2923  -25.2275  -35.2393 C   0  0  0  0  0  0  0  0  0  0  0  0
  -16.4278  -24.5010  -39.5908 C   0  0  0  0  0  0  0  0  0  0  0  0
  -10.0768  -25.8694  -35.0021 C   0  0  0  0  0  0  0  0  0  0  0  0
   -5.3857  -29.9669  -34.3497 C   0  0  0  0  0  0  0  0  0  0  0  0
   -5.7536  -31.1797  -34.9254 C   0  0  0  0  0  0  0  0  0  0  0  0
  -12.1263  -25.6704  -36.2658 C   0  0  0  0  0  0  0  0  0  0  0  0
  -16.5321  -24.3211  -38.2115 C   0  0  0  0  0  0  0  0  0  0  0  0
   -9.6955  -26.9544  -35.7916 C   0  0  0  0  0  0  0  0  0  0  0  0
  -18.8092  -24.1612  -39.8153 C   0  0  0  0  0  0  0  0  0  0  0  0
  -17.5663  -24.4211  -40.3926 C   0  0  0  0  0  0  0  0  0  0  0  0
   -7.2371  -29.5929  -35.3457 C   0  0  0  0  0  0  0  0  0  0  0  0
  -14.2901  -25.2808  -37.5249 C   0  0  0  0  0  0  0  0  0  0  0  0
   -9.1963  -25.3820  -33.8992 C   0  0  0  0  0  0  0  0  0  0  0  0
   -8.4620  -28.9850  -35.8978 C   0  0  0  0  0  0  0  0  0  0  0  0
   -6.3192  -28.9931  -34.6212 N   0  0  0  0  0  0  0  0  0  0  0  0
   -6.9414  -30.9111  -35.5560 N   0  0  0  0  0  0  0  0  0  0  0  0
  -13.3421  -25.0286  -36.5033 N   0  0  0  0  0  0  0  0  0  0  0  0
  -15.3774  -24.4014  -37.3978 N   0  0  0  0  0  0  0  0  0  0  0  0
  -14.1720  -26.1427  -38.3900 O   0  0  0  0  0  0  0  0  0  0  0  0
   -8.5072  -27.5952  -35.5729 O   0  0  0  0  0  0  0  0  0  0  0  0
  -20.2565  -24.0532  -40.7542 Cl  0  0  0  0  0  0  0  0  0  0  0  0
  -17.3733  -24.6554  -42.0946 Cl  0  0  0  0  0  0  0  0  0  0  0  0
   -2.4837  -31.0093  -32.9213 H   0  0  0  0  0  0  0  0  0  0  0  0
   -3.1806  -33.1337  -33.9638 H   0  0  0  0  0  0  0  0  0  0  0  0
   -3.8747  -28.9635  -33.1509 H   0  0  0  0  0  0  0  0  0  0  0  0
   -5.3022  -33.2767  -35.2701 H   0  0  0  0  0  0  0  0  0  0  0  0
  -12.3870  -27.1092  -37.8579 H   0  0  0  0  0  0  0  0  0  0  0  0
  -17.8672  -23.9178  -36.5606 H   0  0  0  0  0  0  0  0  0  0  0  0
  -10.2384  -28.2418  -37.4369 H   0  0  0  0  0  0  0  0  0  0  0  0
  -19.8738  -23.7764  -37.9690 H   0  0  0  0  0  0  0  0  0  0  0  0
  -11.5883  -24.3815  -34.6228 H   0  0  0  0  0  0  0  0  0  0  0  0
  -15.4557  -24.7049  -40.0352 H   0  0  0  0  0  0  0  0  0  0  0  0
   -8.9013  -26.2158  -33.2515 H   0  0  0  0  0  0  0  0  0  0  0  0
   -8.2890  -24.9094  -34.2953 H   0  0  0  0  0  0  0  0  0  0  0  0
   -9.7075  -24.6282  -33.2873 H   0  0  0  0  0  0  0  0  0  0  0  0
   -8.5153  -29.0781  -36.9974 H   0  0  0  0  0  0  0  0  0  0  0  0
   -9.3757  -29.4590  -35.4970 H   0  0  0  0  0  0  0  0  0  0  0  0
   -7.4977  -31.5726  -36.0815 H   0  0  0  0  0  0  0  0  0  0  0  0
  -13.5811  -24.2737  -35.8516 H   0  0  0  0  0  0  0  0  0  0  0  0
  -15.3357  -23.7375  -36.6288 H   0  0  0  0  0  0  0  0  0  0  0  0
  1  2  2  0  0  0  0
  1  3  1  0  0  0  0
  2  4  1  0  0  0  0
  3 12  2  0  0  0  0
  4 13  2  0  0  0  0
  5  7  2  0  0  0  0
  5 14  1  0  0  0  0
  6  8  1  0  0  0  0
  6 15  2  0  0  0  0
  7 16  1  0  0  0  0
  8 17  2  0  0  0  0
  9 11  1  0  0  0  0
  9 14  2  0  0  0  0
 10 15  1  0  0  0  0
 10 18  2  0  0  0  0
 11 16  2  0  0  0  0
 11 21  1  0  0  0  0
 12 13  1  0  0  0  0
 12 23  1  0  0  0  0
 13 24  1  0  0  0  0
 14 25  1  0  0  0  0
 15 26  1  0  0  0  0
 16 28  1  0  0  0  0
 17 18  1  0  0  0  0
 17 29  1  0  0  0  0
 18 30  1  0  0  0  0
 19 22  1  0  0  0  0
 19 23  2  0  0  0  0
 19 24  1  0  0  0  0
 20 25  1  0  0  0  0
 20 26  1  0  0  0  0
 20 27  2  0  0  0  0
 22 28  1  0  0  0  0
  1 31  1  0  0  0  0
  2 32  1  0  0  0  0
  3 33  1  0  0  0  0
  4 34  1  0  0  0  0
  5 35  1  0  0  0  0
  6 36  1  0  0  0  0
  7 37  1  0  0  0  0
  8 38  1  0  0  0  0
  9 39  1  0  0  0  0
 10 40  1  0  0  0  0
 21 41  1  0  0  0  0
 21 42  1  0  0  0  0
 21 43  1  0  0  0  0
 22 44  1  0  0  0  0
 22 45  1  0  0  0  0
 24 46  1  0  0  0  0
 25 47  1  0  0  0  0
 26 48  1  0  0  0  0
M  END
> <Name>
EZ_175a

> <SourceTag>
EZ_175a

> <Activity_sEH>
4.9

> <Activity_FLAP>
0.4

> <Gold.Version>
5.2

> <Gold.Id.Protein>
6HGV|6HGV_protein|mol2

> <Gold.Goldscore.Fitness>
74.8201

> <Gold.Goldscore.Internal.Vdw>
-12.1072

> <Gold.Goldscore.Internal.Torsion>
-4.4581

> <Gold.Goldscore.External.Vdw>
54.5784

> <Gold.Goldscore.Internal.HBond>
0.0000

> <Gold.Goldscore.External.HBond>
5.9342

> <Gold.Goldscore.Internal.Correction>
-10.4058

> <Gold.Goldscore.Hbonds>
donor molecule, donor type, donor heavy atom, donor atom, acceptor molecule, acceptor atom, score
      L1  H    25    47       P1   853  0.81
      L1  H    26    48       P1   853  0.18

> <Gold.Goldscore.Internal.Vdw.Weighted>
-12.1072

> <Gold.Goldscore.Internal.Torsion.Weighted>
-4.4581

> <Gold.Goldscore.External.Vdw.Weighted>
75.0454

> <Gold.Goldscore.Internal.HBond.Weighted>
0.0000

> <Gold.Goldscore.External.HBond.Weighted>
5.9342

> <Gold.Goldscore.Internal.Correction.Weighted>
-10.4058

> <Gold.Protein.RotatedTorsions>
[ 3781 1176 1175 1172 ] final -149.69 input   60.00 | X-H torsion
[ 3847 1247 1246 1244 ] final  -81.04 input   60.00 | X-H torsion
[ 4507 1931 1930 1928 ] final  114.07 input   60.00 | X-H torsion
[ 3677 1070 1069 1066 ] final -118.63 input   60.00 | X-H torsion
[ 3525  925  924  922 ] final   11.59 input   59.99 | X-H torsion
[ 4531 1957 1955 1953 ] final  -23.42 input   60.00 | X-H torsion

> <Gold.Protein.ActiveResidues>
 PHE267  PRO268  MET310  ASP335  TRP336  MET339  TYR343  THR360  PRO361  ILE363 
 PRO371  SER374  ILE375  ASN378  PHE381  TYR383  GLN384  PHE387  LEU408  LEU417 
 MET419  LEU428  TYR466  MET469  ASN472  ASP496  VAL498  LEU499  MET503  HIS524 
 TRP525 

> <Gold.Protein.RotatedAtoms>
   -3.4788  -29.5845  -30.6179 H   0  0  0  0  0  0  0  0  0  0  0  0  # atno 3525 bound_to 925 
  -11.4801  -23.5936  -31.4508 H   0  0  0  0  0  0  0  0  0  0  0  0  # atno 3677 bound_to 1070
   -9.2677  -36.3467  -33.3178 H   0  0  0  0  0  0  0  0  0  0  0  0  # atno 3781 bound_to 1176
  -15.9698  -27.5763  -37.3896 H   0  0  0  0  0  0  0  0  0  0  0  0  # atno 3847 bound_to 1247
  -12.4352  -23.9863  -39.2758 H   0  0  0  0  0  0  0  0  0  0  0  0  # atno 4507 bound_to 1931
   -2.5540  -32.2777  -36.7428 H   0  0  0  0  0  0  0  0  0  0  0  0  # atno 4531 bound_to 1957
  -10.2497  -37.3201  -32.4599 LP  0  0  0  0  0  0  0  0  0  0  0  0  # atno 5205 bound_to 1176
  -10.5987  -36.9700  -34.0162 LP  0  0  0  0  0  0  0  0  0  0  0  0  # atno 5206 bound_to 1176
  -14.4430  -27.7006  -37.9386 LP  0  0  0  0  0  0  0  0  0  0  0  0  # atno 5215 bound_to 1247
  -15.1461  -28.9638  -37.1794 LP  0  0  0  0  0  0  0  0  0  0  0  0  # atno 5216 bound_to 1247
  -13.3216  -25.3454  -39.1521 LP  0  0  0  0  0  0  0  0  0  0  0  0  # atno 5217 bound_to 1931
  -13.4424  -24.4066  -40.4828 LP  0  0  0  0  0  0  0  0  0  0  0  0  # atno 5218 bound_to 1931
  -11.5599  -22.1971  -30.6192 LP  0  0  0  0  0  0  0  0  0  0  0  0  # atno 5224 bound_to 1070
  -12.8174  -23.2387  -30.5941 LP  0  0  0  0  0  0  0  0  0  0  0  0  # atno 5225 bound_to 1070

$$$$
EZ_175a|Lisa_paper2_min|sdf|5|dock8
  -GOLD-  10182016573D 1   1.00000     0.00000

 48 51  0  0  0  0  0  0  0  0  1 V2000
   -3.5181  -32.0555  -33.9460 C   0  0  0  0  0  0  0  0  0  0  0  0
   -3.2980  -30.8716  -33.2384 C   0  0  0  0  0  0  0  0  0  0  0  0
   -4.6423  -32.2066  -34.7676 C   0  0  0  0  0  0  0  0  0  0  0  0
   -4.1899  -29.7975  -33.3251 C   0  0  0  0  0  0  0  0  0  0  0  0
  -11.6481  -26.9457  -37.0436 C   0  0  0  0  0  0  0  0  0  0  0  0
  -17.6131  -24.1058  -37.6415 C   0  0  0  0  0  0  0  0  0  0  0  0
  -10.4449  -27.6086  -36.8020 C   0  0  0  0  0  0  0  0  0  0  0  0
  -18.7588  -24.0219  -38.4327 C   0  0  0  0  0  0  0  0  0  0  0  0
  -11.1285  -25.3645  -35.2923 C   0  0  0  0  0  0  0  0  0  0  0  0
  -16.3057  -24.6661  -39.5945 C   0  0  0  0  0  0  0  0  0  0  0  0
   -9.9252  -26.0274  -35.0508 C   0  0  0  0  0  0  0  0  0  0  0  0
   -5.5491  -31.1377  -34.8663 C   0  0  0  0  0  0  0  0  0  0  0  0
   -5.3025  -29.9703  -34.1491 C   0  0  0  0  0  0  0  0  0  0  0  0
  -11.9899  -25.8235  -36.2887 C   0  0  0  0  0  0  0  0  0  0  0  0
  -16.3864  -24.4278  -38.2225 C   0  0  0  0  0  0  0  0  0  0  0  0
   -9.5834  -27.1495  -35.8056 C   0  0  0  0  0  0  0  0  0  0  0  0
  -18.6780  -24.2603  -39.8047 C   0  0  0  0  0  0  0  0  0  0  0  0
  -17.4514  -24.5823  -40.3855 C   0  0  0  0  0  0  0  0  0  0  0  0
   -7.1699  -29.8260  -35.3267 C   0  0  0  0  0  0  0  0  0  0  0  0
  -14.1589  -25.4195  -37.5341 C   0  0  0  0  0  0  0  0  0  0  0  0
   -9.0151  -25.5222  -33.9803 C   0  0  0  0  0  0  0  0  0  0  0  0
   -8.4009  -29.2122  -35.8587 C   0  0  0  0  0  0  0  0  0  0  0  0
   -6.7132  -31.0294  -35.5919 N   0  0  0  0  0  0  0  0  0  0  0  0
   -6.3550  -29.1491  -34.4626 N   0  0  0  0  0  0  0  0  0  0  0  0
  -13.1934  -25.1607  -36.5307 N   0  0  0  0  0  0  0  0  0  0  0  0
  -15.2243  -24.5120  -37.4198 N   0  0  0  0  0  0  0  0  0  0  0  0
  -14.0707  -26.3077  -38.3758 O   0  0  0  0  0  0  0  0  0  0  0  0
   -8.4077  -27.8113  -35.5821 O   0  0  0  0  0  0  0  0  0  0  0  0
  -20.1333  -24.1442  -40.7303 Cl  0  0  0  0  0  0  0  0  0  0  0  0
  -17.2878  -24.8906  -42.0788 Cl  0  0  0  0  0  0  0  0  0  0  0  0
   -2.8063  -32.8726  -33.8586 H   0  0  0  0  0  0  0  0  0  0  0  0
   -2.4173  -30.7828  -32.6069 H   0  0  0  0  0  0  0  0  0  0  0  0
   -4.8035  -33.1303  -35.3139 H   0  0  0  0  0  0  0  0  0  0  0  0
   -4.0201  -28.8776  -32.7775 H   0  0  0  0  0  0  0  0  0  0  0  0
  -12.3117  -27.3124  -37.8226 H   0  0  0  0  0  0  0  0  0  0  0  0
  -17.6868  -23.9166  -36.5737 H   0  0  0  0  0  0  0  0  0  0  0  0
  -10.1846  -28.4821  -37.3938 H   0  0  0  0  0  0  0  0  0  0  0  0
  -19.7061  -23.7683  -37.9632 H   0  0  0  0  0  0  0  0  0  0  0  0
  -11.3936  -24.4895  -34.7028 H   0  0  0  0  0  0  0  0  0  0  0  0
  -15.3462  -24.9183  -40.0417 H   0  0  0  0  0  0  0  0  0  0  0  0
   -8.5167  -26.3598  -33.4785 H   0  0  0  0  0  0  0  0  0  0  0  0
   -8.2477  -24.8561  -34.3938 H   0  0  0  0  0  0  0  0  0  0  0  0
   -9.5682  -24.9442  -33.2295 H   0  0  0  0  0  0  0  0  0  0  0  0
   -8.4936  -29.3426  -36.9519 H   0  0  0  0  0  0  0  0  0  0  0  0
   -9.3095  -29.6529  -35.4109 H   0  0  0  0  0  0  0  0  0  0  0  0
   -6.4994  -28.2099  -34.1154 H   0  0  0  0  0  0  0  0  0  0  0  0
  -13.4075  -24.3826  -35.8979 H   0  0  0  0  0  0  0  0  0  0  0  0
  -15.1585  -23.8280  -36.6703 H   0  0  0  0  0  0  0  0  0  0  0  0
  1  2  2  0  0  0  0
  1  3  1  0  0  0  0
  2  4  1  0  0  0  0
  3 12  2  0  0  0  0
  4 13  2  0  0  0  0
  5  7  2  0  0  0  0
  5 14  1  0  0  0  0
  6  8  1  0  0  0  0
  6 15  2  0  0  0  0
  7 16  1  0  0  0  0
  8 17  2  0  0  0  0
  9 11  1  0  0  0  0
  9 14  2  0  0  0  0
 10 15  1  0  0  0  0
 10 18  2  0  0  0  0
 11 16  2  0  0  0  0
 11 21  1  0  0  0  0
 12 13  1  0  0  0  0
 12 23  1  0  0  0  0
 13 24  1  0  0  0  0
 14 25  1  0  0  0  0
 15 26  1  0  0  0  0
 16 28  1  0  0  0  0
 17 18  1  0  0  0  0
 17 29  1  0  0  0  0
 18 30  1  0  0  0  0
 19 22  1  0  0  0  0
 19 23  2  0  0  0  0
 19 24  1  0  0  0  0
 20 25  1  0  0  0  0
 20 26  1  0  0  0  0
 20 27  2  0  0  0  0
 22 28  1  0  0  0  0
  1 31  1  0  0  0  0
  2 32  1  0  0  0  0
  3 33  1  0  0  0  0
  4 34  1  0  0  0  0
  5 35  1  0  0  0  0
  6 36  1  0  0  0  0
  7 37  1  0  0  0  0
  8 38  1  0  0  0  0
  9 39  1  0  0  0  0
 10 40  1  0  0  0  0
 21 41  1  0  0  0  0
 21 42  1  0  0  0  0
 21 43  1  0  0  0  0
 22 44  1  0  0  0  0
 22 45  1  0  0  0  0
 24 46  1  0  0  0  0
 25 47  1  0  0  0  0
 26 48  1  0  0  0  0
M  END
> <Name>
EZ_175a

> <SourceTag>
EZ_175a

> <Activity_sEH>
4.9

> <Activity_FLAP>
0.4

> <Gold.Version>
5.2

> <Gold.Id.Protein>
6HGV|6HGV_protein|mol2

> <Gold.Goldscore.Fitness>
74.4158

> <Gold.Goldscore.Internal.Vdw>
-13.0183

> <Gold.Goldscore.Internal.Torsion>
-4.3113

> <Gold.Goldscore.External.Vdw>
54.1677

> <Gold.Goldscore.Internal.HBond>
0.0000

> <Gold.Goldscore.External.HBond>
7.2738

> <Gold.Goldscore.Internal.Correction>
-9.9910

> <Gold.Goldscore.Hbonds>
donor molecule, donor type, donor heavy atom, donor atom, acceptor molecule, acceptor atom, score
      L1  H    25    47       P1   853  0.88
      L1  H    26    48       P1   853  0.33

> <Gold.Goldscore.Internal.Vdw.Weighted>
-13.0183

> <Gold.Goldscore.Internal.Torsion.Weighted>
-4.3113

> <Gold.Goldscore.External.Vdw.Weighted>
74.4805

> <Gold.Goldscore.Internal.HBond.Weighted>
0.0000

> <Gold.Goldscore.External.HBond.Weighted>
7.2738

> <Gold.Goldscore.Internal.Correction.Weighted>
-9.9910

> <Gold.Protein.RotatedTorsions>
[ 3781 1176 1175 1172 ] final   75.28 input   60.00 | X-H torsion
[ 3847 1247 1246 1244 ] final  -78.31 input   60.00 | X-H torsion
[ 4507 1931 1930 1928 ] final  121.84 input   60.00 | X-H torsion
[ 3677 1070 1069 1066 ] final -113.17 input   60.00 | X-H torsion
[ 3525  925  924  922 ] final  -28.33 input   59.99 | X-H torsion
[ 4531 1957 1955 1953 ] final  -34.00 input   60.00 | X-H torsion

> <Gold.Protein.ActiveResidues>
 PHE267  PRO268  MET310  ASP335  TRP336  MET339  TYR343  THR360  PRO361  ILE363 
 PRO371  SER374  ILE375  ASN378  PHE381  TYR383  GLN384  PHE387  LEU408  LEU417 
 MET419  LEU428  TYR466  MET469  ASN472  ASP496  VAL498  LEU499  MET503  HIS524 
 TRP525 

> <Gold.Protein.RotatedAtoms>
   -3.7621  -29.5130  -30.0495 H   0  0  0  0  0  0  0  0  0  0  0  0  # atno 3525 bound_to 925 
  -11.5508  -23.6478  -31.4469 H   0  0  0  0  0  0  0  0  0  0  0  0  # atno 3677 bound_to 1070
  -10.4382  -37.3974  -32.5974 H   0  0  0  0  0  0  0  0  0  0  0  0  # atno 3781 bound_to 1176
  -15.9882  -27.6114  -37.3690 H   0  0  0  0  0  0  0  0  0  0  0  0  # atno 3847 bound_to 1247
  -12.4504  -23.9190  -39.3823 H   0  0  0  0  0  0  0  0  0  0  0  0  # atno 4507 bound_to 1931
   -2.3934  -32.2216  -36.7723 H   0  0  0  0  0  0  0  0  0  0  0  0  # atno 4531 bound_to 1957
  -10.4319  -36.8203  -34.1189 LP  0  0  0  0  0  0  0  0  0  0  0  0  # atno 5205 bound_to 1176
   -9.2378  -36.4117  -33.0827 LP  0  0  0  0  0  0  0  0  0  0  0  0  # atno 5206 bound_to 1176
  -14.4667  -27.6626  -37.9438 LP  0  0  0  0  0  0  0  0  0  0  0  0  # atno 5215 bound_to 1247
  -15.1039  -28.9664  -37.1950 LP  0  0  0  0  0  0  0  0  0  0  0  0  # atno 5216 bound_to 1247
  -13.2404  -25.3051  -39.0620 LP  0  0  0  0  0  0  0  0  0  0  0  0  # atno 5217 bound_to 1931
  -13.5084  -24.5147  -40.4657 LP  0  0  0  0  0  0  0  0  0  0  0  0  # atno 5218 bound_to 1931
  -11.4881  -22.2205  -30.6678 LP  0  0  0  0  0  0  0  0  0  0  0  0  # atno 5224 bound_to 1070
  -12.8179  -23.1607  -30.5495 LP  0  0  0  0  0  0  0  0  0  0  0  0  # atno 5225 bound_to 1070

$$$$
EZ_175a|Lisa_paper2_min|sdf|5|dock7
  -GOLD-  10182016573D 1   1.00000     0.00000

 48 51  0  0  0  0  0  0  0  0  1 V2000
   -3.4579  -30.8638  -33.4872 C   0  0  0  0  0  0  0  0  0  0  0  0
   -3.8200  -32.0654  -34.1003 C   0  0  0  0  0  0  0  0  0  0  0  0
   -4.2894  -29.7389  -33.5571 C   0  0  0  0  0  0  0  0  0  0  0  0
   -5.0230  -32.1878  -34.8037 C   0  0  0  0  0  0  0  0  0  0  0  0
  -12.0121  -26.8067  -36.7999 C   0  0  0  0  0  0  0  0  0  0  0  0
  -16.6679  -24.5128  -39.3599 C   0  0  0  0  0  0  0  0  0  0  0  0
  -10.7837  -27.4305  -36.5825 C   0  0  0  0  0  0  0  0  0  0  0  0
  -17.8000  -24.4208  -40.1696 C   0  0  0  0  0  0  0  0  0  0  0  0
  -11.4842  -25.1742  -35.0989 C   0  0  0  0  0  0  0  0  0  0  0  0
  -18.0259  -24.0703  -37.4112 C   0  0  0  0  0  0  0  0  0  0  0  0
  -10.2557  -25.7980  -34.8815 C   0  0  0  0  0  0  0  0  0  0  0  0
   -5.5017  -29.8439  -34.2600 C   0  0  0  0  0  0  0  0  0  0  0  0
   -5.8352  -31.0548  -34.8602 C   0  0  0  0  0  0  0  0  0  0  0  0
  -12.3624  -25.6785  -36.0581 C   0  0  0  0  0  0  0  0  0  0  0  0
  -16.7809  -24.3376  -37.9806 C   0  0  0  0  0  0  0  0  0  0  0  0
   -9.9054  -26.9263  -35.6233 C   0  0  0  0  0  0  0  0  0  0  0  0
  -19.0450  -24.1534  -39.6002 C   0  0  0  0  0  0  0  0  0  0  0  0
  -19.1579  -23.9782  -38.2210 C   0  0  0  0  0  0  0  0  0  0  0  0
   -7.3963  -29.5222  -35.1908 C   0  0  0  0  0  0  0  0  0  0  0  0
  -14.5228  -25.2770  -37.3193 C   0  0  0  0  0  0  0  0  0  0  0  0
   -9.3278  -25.2448  -33.8508 C   0  0  0  0  0  0  0  0  0  0  0  0
   -8.6619  -28.9524  -35.6893 C   0  0  0  0  0  0  0  0  0  0  0  0
   -6.4832  -28.9040  -34.4758 N   0  0  0  0  0  0  0  0  0  0  0  0
   -7.0517  -30.8200  -35.4481 N   0  0  0  0  0  0  0  0  0  0  0  0
  -13.5912  -25.0548  -36.2759 N   0  0  0  0  0  0  0  0  0  0  0  0
  -15.6325  -24.4318  -37.1595 N   0  0  0  0  0  0  0  0  0  0  0  0
  -14.3750  -26.0903  -38.2260 O   0  0  0  0  0  0  0  0  0  0  0  0
   -8.7050  -27.5501  -35.4232 O   0  0  0  0  0  0  0  0  0  0  0  0
  -20.4090  -24.0485  -40.6567 Cl  0  0  0  0  0  0  0  0  0  0  0  0
  -20.6720  -23.6427  -37.4570 Cl  0  0  0  0  0  0  0  0  0  0  0  0
   -2.5166  -30.7999  -32.9471 H   0  0  0  0  0  0  0  0  0  0  0  0
   -3.1542  -32.9222  -34.0309 H   0  0  0  0  0  0  0  0  0  0  0  0
   -3.9991  -28.8103  -33.0764 H   0  0  0  0  0  0  0  0  0  0  0  0
   -5.3061  -33.1198  -35.2792 H   0  0  0  0  0  0  0  0  0  0  0  0
  -12.6887  -27.2084  -37.5500 H   0  0  0  0  0  0  0  0  0  0  0  0
  -15.7029  -24.7230  -39.8136 H   0  0  0  0  0  0  0  0  0  0  0  0
  -10.5169  -28.3089  -37.1640 H   0  0  0  0  0  0  0  0  0  0  0  0
  -17.6935  -24.5616  -41.2424 H   0  0  0  0  0  0  0  0  0  0  0  0
  -11.7559  -24.2945  -34.5196 H   0  0  0  0  0  0  0  0  0  0  0  0
  -18.1075  -23.9332  -36.3348 H   0  0  0  0  0  0  0  0  0  0  0  0
   -9.1103  -26.0026  -33.0890 H   0  0  0  0  0  0  0  0  0  0  0  0
   -8.3815  -24.9210  -34.3017 H   0  0  0  0  0  0  0  0  0  0  0  0
   -9.7622  -24.3669  -33.3563 H   0  0  0  0  0  0  0  0  0  0  0  0
   -8.7836  -29.0948  -36.7781 H   0  0  0  0  0  0  0  0  0  0  0  0
   -9.5418  -29.4178  -35.2105 H   0  0  0  0  0  0  0  0  0  0  0  0
   -7.5951  -31.4899  -35.9766 H   0  0  0  0  0  0  0  0  0  0  0  0
  -13.8551  -24.3403  -35.5891 H   0  0  0  0  0  0  0  0  0  0  0  0
  -15.6147  -23.8073  -36.3572 H   0  0  0  0  0  0  0  0  0  0  0  0
  1  2  2  0  0  0  0
  1  3  1  0  0  0  0
  2  4  1  0  0  0  0
  3 12  2  0  0  0  0
  4 13  2  0  0  0  0
  5  7  2  0  0  0  0
  5 14  1  0  0  0  0
  6  8  1  0  0  0  0
  6 15  2  0  0  0  0
  7 16  1  0  0  0  0
  8 17  2  0  0  0  0
  9 11  1  0  0  0  0
  9 14  2  0  0  0  0
 10 15  1  0  0  0  0
 10 18  2  0  0  0  0
 11 16  2  0  0  0  0
 11 21  1  0  0  0  0
 12 13  1  0  0  0  0
 12 23  1  0  0  0  0
 13 24  1  0  0  0  0
 14 25  1  0  0  0  0
 15 26  1  0  0  0  0
 16 28  1  0  0  0  0
 17 18  1  0  0  0  0
 17 29  1  0  0  0  0
 18 30  1  0  0  0  0
 19 22  1  0  0  0  0
 19 23  2  0  0  0  0
 19 24  1  0  0  0  0
 20 25  1  0  0  0  0
 20 26  1  0  0  0  0
 20 27  2  0  0  0  0
 22 28  1  0  0  0  0
  1 31  1  0  0  0  0
  2 32  1  0  0  0  0
  3 33  1  0  0  0  0
  4 34  1  0  0  0  0
  5 35  1  0  0  0  0
  6 36  1  0  0  0  0
  7 37  1  0  0  0  0
  8 38  1  0  0  0  0
  9 39  1  0  0  0  0
 10 40  1  0  0  0  0
 21 41  1  0  0  0  0
 21 42  1  0  0  0  0
 21 43  1  0  0  0  0
 22 44  1  0  0  0  0
 22 45  1  0  0  0  0
 24 46  1  0  0  0  0
 25 47  1  0  0  0  0
 26 48  1  0  0  0  0
M  END
> <Name>
EZ_175a

> <SourceTag>
EZ_175a

> <Activity_sEH>
4.9

> <Activity_FLAP>
0.4

> <Gold.Version>
5.2

> <Gold.Id.Protein>
6HGV|6HGV_protein|mol2

> <Gold.Goldscore.Fitness>
74.4055

> <Gold.Goldscore.Internal.Vdw>
-12.4107

> <Gold.Goldscore.Internal.Torsion>
-4.1842

> <Gold.Goldscore.External.Vdw>
56.8981

> <Gold.Goldscore.Internal.HBond>
0.0000

> <Gold.Goldscore.External.HBond>
2.7746

> <Gold.Goldscore.Internal.Correction>
-9.9910

> <Gold.Goldscore.Hbonds>
donor molecule, donor type, donor heavy atom, donor atom, acceptor molecule, acceptor atom, score
      L1  H    25    47       P1   853  0.42
      L1  H    26    48       P1   853  0.04

> <Gold.Goldscore.Internal.Vdw.Weighted>
-12.4107

> <Gold.Goldscore.Internal.Torsion.Weighted>
-4.1842

> <Gold.Goldscore.External.Vdw.Weighted>
78.2349

> <Gold.Goldscore.Internal.HBond.Weighted>
0.0000

> <Gold.Goldscore.External.HBond.Weighted>
2.7746

> <Gold.Goldscore.Internal.Correction.Weighted>
-9.9910

> <Gold.Protein.RotatedTorsions>
[ 3781 1176 1175 1172 ] final -136.23 input   60.00 | X-H torsion
[ 3847 1247 1246 1244 ] final  -73.55 input   60.00 | X-H torsion
[ 4507 1931 1930 1928 ] final  125.95 input   60.00 | X-H torsion
[ 3677 1070 1069 1066 ] final -103.22 input   60.00 | X-H torsion
[ 3525  925  924  922 ] final    8.62 input   59.99 | X-H torsion
[ 4531 1957 1955 1953 ] final   11.36 input   60.00 | X-H torsion

> <Gold.Protein.ActiveResidues>
 PHE267  PRO268  MET310  ASP335  TRP336  MET339  TYR343  THR360  PRO361  ILE363 
 PRO371  SER374  ILE375  ASN378  PHE381  TYR383  GLN384  PHE387  LEU408  LEU417 
 MET419  LEU428  TYR466  MET469  ASN472  ASP496  VAL498  LEU499  MET503  HIS524 
 TRP525 

> <Gold.Protein.RotatedAtoms>
   -3.5115  -29.5733  -30.5839 H   0  0  0  0  0  0  0  0  0  0  0  0  # atno 3525 bound_to 925 
  -11.6884  -23.7313  -31.4268 H   0  0  0  0  0  0  0  0  0  0  0  0  # atno 3677 bound_to 1070
   -9.3354  -36.3146  -33.5241 H   0  0  0  0  0  0  0  0  0  0  0  0  # atno 3781 bound_to 1176
  -16.0157  -27.6750  -37.3339 H   0  0  0  0  0  0  0  0  0  0  0  0  # atno 3847 bound_to 1247
  -12.4630  -23.8882  -39.4406 H   0  0  0  0  0  0  0  0  0  0  0  0  # atno 4507 bound_to 1931
   -2.9661  -32.6493  -36.6709 H   0  0  0  0  0  0  0  0  0  0  0  0  # atno 4531 bound_to 1957
  -10.0644  -37.2234  -32.3881 LP  0  0  0  0  0  0  0  0  0  0  0  0  # atno 5205 bound_to 1176
  -10.7158  -37.0991  -33.8804 LP  0  0  0  0  0  0  0  0  0  0  0  0  # atno 5206 bound_to 1176
  -14.5117  -27.5990  -37.9505 LP  0  0  0  0  0  0  0  0  0  0  0  0  # atno 5215 bound_to 1247
  -15.0312  -28.9660  -37.2237 LP  0  0  0  0  0  0  0  0  0  0  0  0  # atno 5216 bound_to 1247
  -13.1961  -25.2783  -39.0186 LP  0  0  0  0  0  0  0  0  0  0  0  0  # atno 5217 bound_to 1931
  -13.5400  -24.5725  -40.4504 LP  0  0  0  0  0  0  0  0  0  0  0  0  # atno 5218 bound_to 1931
  -11.3686  -22.2812  -30.7611 LP  0  0  0  0  0  0  0  0  0  0  0  0  # atno 5224 bound_to 1070
  -12.7989  -23.0159  -30.4764 LP  0  0  0  0  0  0  0  0  0  0  0  0  # atno 5225 bound_to 1070

$$$$
EZ_175a|Lisa_paper2_min|sdf|5|dock9
  -GOLD-  10182016583D 1   1.00000     0.00000

 48 51  0  0  0  0  0  0  0  0  1 V2000
   -3.5590  -30.9928  -33.4578 C   0  0  0  0  0  0  0  0  0  0  0  0
   -3.9729  -32.1960  -34.0338 C   0  0  0  0  0  0  0  0  0  0  0  0
   -4.3176  -29.8245  -33.6038 C   0  0  0  0  0  0  0  0  0  0  0  0
   -5.1566  -32.2768  -34.7748 C   0  0  0  0  0  0  0  0  0  0  0  0
  -11.8382  -26.6281  -37.0659 C   0  0  0  0  0  0  0  0  0  0  0  0
  -17.9024  -23.9757  -37.6111 C   0  0  0  0  0  0  0  0  0  0  0  0
  -10.6218  -27.2670  -36.8262 C   0  0  0  0  0  0  0  0  0  0  0  0
  -19.0426  -23.9031  -38.4112 C   0  0  0  0  0  0  0  0  0  0  0  0
  -11.4485  -25.1765  -35.1744 C   0  0  0  0  0  0  0  0  0  0  0  0
  -16.5631  -24.4574  -39.5634 C   0  0  0  0  0  0  0  0  0  0  0  0
  -10.2320  -25.8154  -34.9347 C   0  0  0  0  0  0  0  0  0  0  0  0
   -5.5096  -29.8873  -34.3453 C   0  0  0  0  0  0  0  0  0  0  0  0
   -5.8959  -31.1010  -34.9072 C   0  0  0  0  0  0  0  0  0  0  0  0
  -12.2516  -25.5827  -36.2400 C   0  0  0  0  0  0  0  0  0  0  0  0
  -16.6626  -24.2528  -38.1872 C   0  0  0  0  0  0  0  0  0  0  0  0
   -9.8186  -26.8608  -35.7606 C   0  0  0  0  0  0  0  0  0  0  0  0
  -18.9431  -24.1078  -39.7875 C   0  0  0  0  0  0  0  0  0  0  0  0
  -17.7034  -24.3849  -40.3635 C   0  0  0  0  0  0  0  0  0  0  0  0
   -7.3486  -29.4940  -35.3567 C   0  0  0  0  0  0  0  0  0  0  0  0
  -14.4183  -25.2051  -37.4976 C   0  0  0  0  0  0  0  0  0  0  0  0
   -9.3848  -25.3676  -33.7896 C   0  0  0  0  0  0  0  0  0  0  0  0
   -8.5596  -28.8718  -35.9237 C   0  0  0  0  0  0  0  0  0  0  0  0
   -6.4242  -28.9009  -34.6350 N   0  0  0  0  0  0  0  0  0  0  0  0
   -7.0753  -30.8198  -35.5479 N   0  0  0  0  0  0  0  0  0  0  0  0
  -13.4684  -24.9438  -36.4801 N   0  0  0  0  0  0  0  0  0  0  0  0
  -15.5061  -24.3256  -37.3754 N   0  0  0  0  0  0  0  0  0  0  0  0
  -14.3013  -26.0739  -38.3560 O   0  0  0  0  0  0  0  0  0  0  0  0
   -8.6289  -27.4981  -35.5400 O   0  0  0  0  0  0  0  0  0  0  0  0
  -20.3924  -24.0078  -40.7243 Cl  0  0  0  0  0  0  0  0  0  0  0  0
  -17.5164  -24.6499  -42.0616 Cl  0  0  0  0  0  0  0  0  0  0  0  0
   -2.6344  -30.9618  -32.8870 H   0  0  0  0  0  0  0  0  0  0  0  0
   -3.3632  -33.0871  -33.9053 H   0  0  0  0  0  0  0  0  0  0  0  0
   -3.9876  -28.8949  -33.1514 H   0  0  0  0  0  0  0  0  0  0  0  0
   -5.4799  -33.2100  -35.2216 H   0  0  0  0  0  0  0  0  0  0  0  0
  -12.4560  -26.9531  -37.8993 H   0  0  0  0  0  0  0  0  0  0  0  0
  -17.9907  -23.8131  -36.5400 H   0  0  0  0  0  0  0  0  0  0  0  0
  -10.3056  -28.0806  -37.4735 H   0  0  0  0  0  0  0  0  0  0  0  0
  -20.0004  -23.6847  -37.9454 H   0  0  0  0  0  0  0  0  0  0  0  0
  -11.7694  -24.3614  -34.5294 H   0  0  0  0  0  0  0  0  0  0  0  0
  -15.5934  -24.6745  -40.0069 H   0  0  0  0  0  0  0  0  0  0  0  0
   -9.3597  -26.1387  -33.0108 H   0  0  0  0  0  0  0  0  0  0  0  0
   -8.3565  -25.1638  -34.1128 H   0  0  0  0  0  0  0  0  0  0  0  0
   -9.7708  -24.4394  -33.3499 H   0  0  0  0  0  0  0  0  0  0  0  0
   -8.5743  -28.9168  -37.0275 H   0  0  0  0  0  0  0  0  0  0  0  0
   -9.4820  -29.3702  -35.5759 H   0  0  0  0  0  0  0  0  0  0  0  0
   -7.6404  -31.4783  -36.0678 H   0  0  0  0  0  0  0  0  0  0  0  0
  -13.7066  -24.1839  -35.8340 H   0  0  0  0  0  0  0  0  0  0  0  0
  -15.4633  -23.6555  -36.6119 H   0  0  0  0  0  0  0  0  0  0  0  0
  1  2  2  0  0  0  0
  1  3  1  0  0  0  0
  2  4  1  0  0  0  0
  3 12  2  0  0  0  0
  4 13  2  0  0  0  0
  5  7  2  0  0  0  0
  5 14  1  0  0  0  0
  6  8  1  0  0  0  0
  6 15  2  0  0  0  0
  7 16  1  0  0  0  0
  8 17  2  0  0  0  0
  9 11  1  0  0  0  0
  9 14  2  0  0  0  0
 10 15  1  0  0  0  0
 10 18  2  0  0  0  0
 11 16  2  0  0  0  0
 11 21  1  0  0  0  0
 12 13  1  0  0  0  0
 12 23  1  0  0  0  0
 13 24  1  0  0  0  0
 14 25  1  0  0  0  0
 15 26  1  0  0  0  0
 16 28  1  0  0  0  0
 17 18  1  0  0  0  0
 17 29  1  0  0  0  0
 18 30  1  0  0  0  0
 19 22  1  0  0  0  0
 19 23  2  0  0  0  0
 19 24  1  0  0  0  0
 20 25  1  0  0  0  0
 20 26  1  0  0  0  0
 20 27  2  0  0  0  0
 22 28  1  0  0  0  0
  1 31  1  0  0  0  0
  2 32  1  0  0  0  0
  3 33  1  0  0  0  0
  4 34  1  0  0  0  0
  5 35  1  0  0  0  0
  6 36  1  0  0  0  0
  7 37  1  0  0  0  0
  8 38  1  0  0  0  0
  9 39  1  0  0  0  0
 10 40  1  0  0  0  0
 21 41  1  0  0  0  0
 21 42  1  0  0  0  0
 21 43  1  0  0  0  0
 22 44  1  0  0  0  0
 22 45  1  0  0  0  0
 24 46  1  0  0  0  0
 25 47  1  0  0  0  0
 26 48  1  0  0  0  0
M  END
> <Name>
EZ_175a

> <SourceTag>
EZ_175a

> <Activity_sEH>
4.9

> <Activity_FLAP>
0.4

> <Gold.Version>
5.2

> <Gold.Id.Protein>
6HGV|6HGV_protein|mol2

> <Gold.Goldscore.Fitness>
74.0910

> <Gold.Goldscore.Internal.Vdw>
-11.9598

> <Gold.Goldscore.Internal.Torsion>
-4.3970

> <Gold.Goldscore.External.Vdw>
54.7714

> <Gold.Goldscore.Internal.HBond>
0.0000

> <Gold.Goldscore.External.HBond>
5.1462

> <Gold.Goldscore.Internal.Correction>
-9.9910

> <Gold.Goldscore.Hbonds>
donor molecule, donor type, donor heavy atom, donor atom, acceptor molecule, acceptor atom, score
      L1  H    25    47       P1   853  0.76
      L1  H    26    48       P1   853  0.10

> <Gold.Goldscore.Internal.Vdw.Weighted>
-11.9598

> <Gold.Goldscore.Internal.Torsion.Weighted>
-4.3970

> <Gold.Goldscore.External.Vdw.Weighted>
75.3107

> <Gold.Goldscore.Internal.HBond.Weighted>
0.0000

> <Gold.Goldscore.External.HBond.Weighted>
5.1462

> <Gold.Goldscore.Internal.Correction.Weighted>
-9.9910

> <Gold.Protein.RotatedTorsions>
[ 3781 1176 1175 1172 ] final  117.83 input   60.00 | X-H torsion
[ 3847 1247 1246 1244 ] final  -73.50 input   60.00 | X-H torsion
[ 4507 1931 1930 1928 ] final  110.02 input   60.00 | X-H torsion
[ 3677 1070 1069 1066 ] final -108.10 input   60.00 | X-H torsion
[ 3525  925  924  922 ] final  -32.24 input   59.99 | X-H torsion
[ 4531 1957 1955 1953 ] final  -23.85 input   60.00 | X-H torsion

> <Gold.Protein.ActiveResidues>
 PHE267  PRO268  MET310  ASP335  TRP336  MET339  TYR343  THR360  PRO361  ILE363 
 PRO371  SER374  ILE375  ASN378  PHE381  TYR383  GLN384  PHE387  LEU408  LEU417 
 MET419  LEU428  TYR466  MET469  ASN472  ASP496  VAL498  LEU499  MET503  HIS524 
 TRP525 

> <Gold.Protein.RotatedAtoms>
   -3.7692  -29.5157  -29.9860 H   0  0  0  0  0  0  0  0  0  0  0  0  # atno 3525 bound_to 925 
  -11.6197  -23.6929  -31.4387 H   0  0  0  0  0  0  0  0  0  0  0  0  # atno 3677 bound_to 1070
   -9.8693  -37.1024  -32.3715 H   0  0  0  0  0  0  0  0  0  0  0  0  # atno 3781 bound_to 1176
  -16.0160  -27.6757  -37.3335 H   0  0  0  0  0  0  0  0  0  0  0  0  # atno 3847 bound_to 1247
  -12.4319  -24.0258  -39.2228 H   0  0  0  0  0  0  0  0  0  0  0  0  # atno 4507 bound_to 1931
   -2.5477  -32.2748  -36.7439 H   0  0  0  0  0  0  0  0  0  0  0  0  # atno 4531 bound_to 1957
  -10.7983  -37.2208  -33.7023 LP  0  0  0  0  0  0  0  0  0  0  0  0  # atno 5205 bound_to 1176
   -9.4443  -36.3083  -33.7268 LP  0  0  0  0  0  0  0  0  0  0  0  0  # atno 5206 bound_to 1176
  -14.5122  -27.5984  -37.9506 LP  0  0  0  0  0  0  0  0  0  0  0  0  # atno 5215 bound_to 1247
  -15.0304  -28.9659  -37.2240 LP  0  0  0  0  0  0  0  0  0  0  0  0  # atno 5216 bound_to 1247
  -13.3622  -25.3608  -39.2027 LP  0  0  0  0  0  0  0  0  0  0  0  0  # atno 5217 bound_to 1931
  -13.4052  -24.3514  -40.4856 LP  0  0  0  0  0  0  0  0  0  0  0  0  # atno 5218 bound_to 1931
  -11.4252  -22.2486  -30.7147 LP  0  0  0  0  0  0  0  0  0  0  0  0  # atno 5224 bound_to 1070
  -12.8115  -23.0872  -30.5108 LP  0  0  0  0  0  0  0  0  0  0  0  0  # atno 5225 bound_to 1070

$$$$
EZ_175a|Lisa_paper2_min|sdf|5|dock3
  -GOLD-  10182016563D 1   1.00000     0.00000

 48 51  0  0  0  0  0  0  0  0  1 V2000
   -3.3726  -31.7626  -34.2160 C   0  0  0  0  0  0  0  0  0  0  0  0
   -3.1718  -30.6090  -33.4547 C   0  0  0  0  0  0  0  0  0  0  0  0
   -4.5346  -31.9297  -34.9799 C   0  0  0  0  0  0  0  0  0  0  0  0
   -4.1213  -29.5821  -33.4284 C   0  0  0  0  0  0  0  0  0  0  0  0
  -11.9303  -27.0710  -36.5986 C   0  0  0  0  0  0  0  0  0  0  0  0
  -16.2049  -24.7498  -39.7371 C   0  0  0  0  0  0  0  0  0  0  0  0
  -10.7720  -27.7568  -36.2333 C   0  0  0  0  0  0  0  0  0  0  0  0
  -17.2777  -24.6664  -40.6247 C   0  0  0  0  0  0  0  0  0  0  0  0
  -11.3008  -25.2388  -35.1551 C   0  0  0  0  0  0  0  0  0  0  0  0
  -17.6097  -23.9090  -37.9603 C   0  0  0  0  0  0  0  0  0  0  0  0
  -10.1424  -25.9246  -34.7897 C   0  0  0  0  0  0  0  0  0  0  0  0
   -5.4994  -30.9082  -34.9650 C   0  0  0  0  0  0  0  0  0  0  0  0
   -5.2707  -29.7701  -34.1966 C   0  0  0  0  0  0  0  0  0  0  0  0
  -12.1947  -25.8119  -36.0595 C   0  0  0  0  0  0  0  0  0  0  0  0
  -16.3709  -24.3712  -38.4048 C   0  0  0  0  0  0  0  0  0  0  0  0
   -9.8780  -27.1837  -35.3288 C   0  0  0  0  0  0  0  0  0  0  0  0
  -18.5164  -24.2042  -40.1802 C   0  0  0  0  0  0  0  0  0  0  0  0
  -18.6824  -23.8255  -38.8480 C   0  0  0  0  0  0  0  0  0  0  0  0
   -7.2101  -29.6638  -35.2562 C   0  0  0  0  0  0  0  0  0  0  0  0
  -14.2394  -25.3963  -37.4967 C   0  0  0  0  0  0  0  0  0  0  0  0
   -9.1965  -25.2961  -33.8204 C   0  0  0  0  0  0  0  0  0  0  0  0
   -8.5005  -29.0901  -35.6811 C   0  0  0  0  0  0  0  0  0  0  0  0
   -6.7088  -30.8241  -35.6160 N   0  0  0  0  0  0  0  0  0  0  0  0
   -6.3809  -28.9917  -34.4019 N   0  0  0  0  0  0  0  0  0  0  0  0
  -13.3534  -25.1263  -36.4252 N   0  0  0  0  0  0  0  0  0  0  0  0
  -15.2827  -24.4566  -37.5046 N   0  0  0  0  0  0  0  0  0  0  0  0
  -14.1082  -26.3176  -38.2963 O   0  0  0  0  0  0  0  0  0  0  0  0
   -8.7471  -27.8698  -34.9817 O   0  0  0  0  0  0  0  0  0  0  0  0
  -19.8055  -24.1210  -41.3288 Cl  0  0  0  0  0  0  0  0  0  0  0  0
  -20.1916  -23.2431  -38.2381 Cl  0  0  0  0  0  0  0  0  0  0  0  0
   -2.6158  -32.5431  -34.2164 H   0  0  0  0  0  0  0  0  0  0  0  0
   -2.2607  -30.5068  -32.8700 H   0  0  0  0  0  0  0  0  0  0  0  0
   -4.6804  -32.8296  -35.5687 H   0  0  0  0  0  0  0  0  0  0  0  0
   -3.9667  -28.6856  -32.8390 H   0  0  0  0  0  0  0  0  0  0  0  0
  -12.6198  -27.5274  -37.3043 H   0  0  0  0  0  0  0  0  0  0  0  0
  -15.2443  -25.1128  -40.0934 H   0  0  0  0  0  0  0  0  0  0  0  0
  -10.5719  -28.7373  -36.6570 H   0  0  0  0  0  0  0  0  0  0  0  0
  -17.1305  -24.9672  -41.6591 H   0  0  0  0  0  0  0  0  0  0  0  0
  -11.5056  -24.2570  -34.7338 H   0  0  0  0  0  0  0  0  0  0  0  0
  -17.7326  -23.6138  -36.9202 H   0  0  0  0  0  0  0  0  0  0  0  0
   -9.7101  -24.5262  -33.2327 H   0  0  0  0  0  0  0  0  0  0  0  0
   -8.7806  -26.0419  -33.1316 H   0  0  0  0  0  0  0  0  0  0  0  0
   -8.3478  -24.8321  -34.3384 H   0  0  0  0  0  0  0  0  0  0  0  0
   -8.5237  -28.8711  -36.7638 H   0  0  0  0  0  0  0  0  0  0  0  0
   -9.3437  -29.7749  -35.4803 H   0  0  0  0  0  0  0  0  0  0  0  0
   -6.5524  -28.0823  -33.9934 H   0  0  0  0  0  0  0  0  0  0  0  0
  -13.5958  -24.3194  -35.8405 H   0  0  0  0  0  0  0  0  0  0  0  0
  -15.2589  -23.7470  -36.7768 H   0  0  0  0  0  0  0  0  0  0  0  0
  1  2  2  0  0  0  0
  1  3  1  0  0  0  0
  2  4  1  0  0  0  0
  3 12  2  0  0  0  0
  4 13  2  0  0  0  0
  5  7  2  0  0  0  0
  5 14  1  0  0  0  0
  6  8  1  0  0  0  0
  6 15  2  0  0  0  0
  7 16  1  0  0  0  0
  8 17  2  0  0  0  0
  9 11  1  0  0  0  0
  9 14  2  0  0  0  0
 10 15  1  0  0  0  0
 10 18  2  0  0  0  0
 11 16  2  0  0  0  0
 11 21  1  0  0  0  0
 12 13  1  0  0  0  0
 12 23  1  0  0  0  0
 13 24  1  0  0  0  0
 14 25  1  0  0  0  0
 15 26  1  0  0  0  0
 16 28  1  0  0  0  0
 17 18  1  0  0  0  0
 17 29  1  0  0  0  0
 18 30  1  0  0  0  0
 19 22  1  0  0  0  0
 19 23  2  0  0  0  0
 19 24  1  0  0  0  0
 20 25  1  0  0  0  0
 20 26  1  0  0  0  0
 20 27  2  0  0  0  0
 22 28  1  0  0  0  0
  1 31  1  0  0  0  0
  2 32  1  0  0  0  0
  3 33  1  0  0  0  0
  4 34  1  0  0  0  0
  5 35  1  0  0  0  0
  6 36  1  0  0  0  0
  7 37  1  0  0  0  0
  8 38  1  0  0  0  0
  9 39  1  0  0  0  0
 10 40  1  0  0  0  0
 21 41  1  0  0  0  0
 21 42  1  0  0  0  0
 21 43  1  0  0  0  0
 22 44  1  0  0  0  0
 22 45  1  0  0  0  0
 24 46  1  0  0  0  0
 25 47  1  0  0  0  0
 26 48  1  0  0  0  0
M  END
> <Name>
EZ_175a

> <SourceTag>
EZ_175a

> <Activity_sEH>
4.9

> <Activity_FLAP>
0.4

> <Gold.Version>
5.2

> <Gold.Id.Protein>
6HGV|6HGV_protein|mol2

> <Gold.Goldscore.Fitness>
73.9687

> <Gold.Goldscore.Internal.Vdw>
-15.4143

> <Gold.Goldscore.Internal.Torsion>
-3.3551

> <Gold.Goldscore.External.Vdw>
55.1349

> <Gold.Goldscore.Internal.HBond>
0.0000

> <Gold.Goldscore.External.HBond>
6.5218

> <Gold.Goldscore.Internal.Correction>
-10.4058

> <Gold.Goldscore.Hbonds>
donor molecule, donor type, donor heavy atom, donor atom, acceptor molecule, acceptor atom, score
      L1  H    25    47       P1   853  0.90
      L1  H    26    48       P1   853  0.18

> <Gold.Goldscore.Internal.Vdw.Weighted>
-15.4143

> <Gold.Goldscore.Internal.Torsion.Weighted>
-3.3551

> <Gold.Goldscore.External.Vdw.Weighted>
75.8105

> <Gold.Goldscore.Internal.HBond.Weighted>
0.0000

> <Gold.Goldscore.External.HBond.Weighted>
6.5218

> <Gold.Goldscore.Internal.Correction.Weighted>
-10.4058

> <Gold.Protein.RotatedTorsions>
[ 3781 1176 1175 1172 ] final  119.80 input   60.00 | X-H torsion
[ 3847 1247 1246 1244 ] final  -62.90 input   60.00 | X-H torsion
[ 4507 1931 1930 1928 ] final   87.30 input   60.00 | X-H torsion
[ 3677 1070 1069 1066 ] final -101.66 input   60.00 | X-H torsion
[ 3525  925  924  922 ] final  -61.31 input   59.99 | X-H torsion
[ 4531 1957 1955 1953 ] final  -37.15 input   60.00 | X-H torsion

> <Gold.Protein.ActiveResidues>
 PHE267  PRO268  MET310  ASP335  TRP336  MET339  TYR343  THR360  PRO361  ILE363 
 PRO371  SER374  ILE375  ASN378  PHE381  TYR383  GLN384  PHE387  LEU408  LEU417 
 MET419  LEU428  TYR466  MET469  ASN472  ASP496  VAL498  LEU499  MET503  HIS524 
 TRP525 

> <Gold.Protein.RotatedAtoms>
   -3.6980  -29.5887  -29.5273 H   0  0  0  0  0  0  0  0  0  0  0  0  # atno 3525 bound_to 925 
  -11.7109  -23.7425  -31.4221 H   0  0  0  0  0  0  0  0  0  0  0  0  # atno 3677 bound_to 1070
   -9.8427  -37.0844  -32.3725 H   0  0  0  0  0  0  0  0  0  0  0  0  # atno 3781 bound_to 1176
  -16.0565  -27.8268  -37.2598 H   0  0  0  0  0  0  0  0  0  0  0  0  # atno 3847 bound_to 1247
  -12.4714  -24.2922  -38.9709 H   0  0  0  0  0  0  0  0  0  0  0  0  # atno 4507 bound_to 1931
   -2.3439  -32.2109  -36.7816 H   0  0  0  0  0  0  0  0  0  0  0  0  # atno 4531 bound_to 1957
  -10.8063  -37.2363  -33.6751 LP  0  0  0  0  0  0  0  0  0  0  0  0  # atno 5205 bound_to 1176
   -9.4631  -36.3110  -33.7530 LP  0  0  0  0  0  0  0  0  0  0  0  0  # atno 5206 bound_to 1176
  -14.6289  -27.4692  -37.9542 LP  0  0  0  0  0  0  0  0  0  0  0  0  # atno 5215 bound_to 1247
  -14.8729  -28.9430  -37.2946 LP  0  0  0  0  0  0  0  0  0  0  0  0  # atno 5216 bound_to 1247
  -13.5567  -25.3738  -39.5187 LP  0  0  0  0  0  0  0  0  0  0  0  0  # atno 5217 bound_to 1931
  -13.1709  -24.0702  -40.4233 LP  0  0  0  0  0  0  0  0  0  0  0  0  # atno 5218 bound_to 1931
  -11.3513  -22.2928  -30.7762 LP  0  0  0  0  0  0  0  0  0  0  0  0  # atno 5224 bound_to 1070
  -12.7935  -22.9930  -30.4659 LP  0  0  0  0  0  0  0  0  0  0  0  0  # atno 5225 bound_to 1070

$$$$
EZ_175a|Lisa_paper2_min|sdf|5|dock5
  -GOLD-  10182016573D 1   1.00000     0.00000

 48 51  0  0  0  0  0  0  0  0  1 V2000
   -3.6301  -31.1012  -33.6132 C   0  0  0  0  0  0  0  0  0  0  0  0
   -4.0935  -32.3086  -34.1407 C   0  0  0  0  0  0  0  0  0  0  0  0
   -4.3634  -29.9179  -33.7672 C   0  0  0  0  0  0  0  0  0  0  0  0
   -5.3034  -32.3787  -34.8394 C   0  0  0  0  0  0  0  0  0  0  0  0
  -11.9237  -26.6355  -37.0661 C   0  0  0  0  0  0  0  0  0  0  0  0
  -17.9987  -23.9957  -37.5519 C   0  0  0  0  0  0  0  0  0  0  0  0
  -10.7092  -27.2815  -36.8357 C   0  0  0  0  0  0  0  0  0  0  0  0
  -19.1380  -23.9069  -38.3518 C   0  0  0  0  0  0  0  0  0  0  0  0
  -11.5647  -25.2632  -35.1103 C   0  0  0  0  0  0  0  0  0  0  0  0
  -16.6544  -24.4211  -39.5137 C   0  0  0  0  0  0  0  0  0  0  0  0
  -10.3502  -25.9092  -34.8799 C   0  0  0  0  0  0  0  0  0  0  0  0
   -5.5810  -29.9698  -34.4666 C   0  0  0  0  0  0  0  0  0  0  0  0
   -6.0167  -31.1880  -34.9806 C   0  0  0  0  0  0  0  0  0  0  0  0
  -12.3515  -25.6262  -36.2033 C   0  0  0  0  0  0  0  0  0  0  0  0
  -16.7569  -24.2527  -38.1328 C   0  0  0  0  0  0  0  0  0  0  0  0
   -9.9224  -26.9185  -35.7426 C   0  0  0  0  0  0  0  0  0  0  0  0
  -19.0354  -24.0754  -39.7327 C   0  0  0  0  0  0  0  0  0  0  0  0
  -17.7936  -24.3325  -40.3136 C   0  0  0  0  0  0  0  0  0  0  0  0
   -7.4427  -29.5563  -35.4272 C   0  0  0  0  0  0  0  0  0  0  0  0
  -14.5159  -25.2223  -37.4568 C   0  0  0  0  0  0  0  0  0  0  0  0
   -9.5206  -25.5079  -33.7051 C   0  0  0  0  0  0  0  0  0  0  0  0
   -8.6561  -28.9185  -35.9711 C   0  0  0  0  0  0  0  0  0  0  0  0
   -6.4797  -28.9681  -34.7537 N   0  0  0  0  0  0  0  0  0  0  0  0
   -7.2097  -30.8937  -35.5896 N   0  0  0  0  0  0  0  0  0  0  0  0
  -13.5663  -24.9802  -36.4342 N   0  0  0  0  0  0  0  0  0  0  0  0
  -15.6014  -24.3419  -37.3212 N   0  0  0  0  0  0  0  0  0  0  0  0
  -14.4003  -26.0771  -38.3291 O   0  0  0  0  0  0  0  0  0  0  0  0
   -8.7343  -27.5621  -35.5316 O   0  0  0  0  0  0  0  0  0  0  0  0
  -20.4836  -23.9569  -40.6691 Cl  0  0  0  0  0  0  0  0  0  0  0  0
  -17.6028  -24.5526  -42.0177 Cl  0  0  0  0  0  0  0  0  0  0  0  0
   -2.6861  -31.0788  -33.0745 H   0  0  0  0  0  0  0  0  0  0  0  0
   -3.5026  -33.2115  -34.0072 H   0  0  0  0  0  0  0  0  0  0  0  0
   -3.9947  -28.9851  -33.3526 H   0  0  0  0  0  0  0  0  0  0  0  0
   -5.6651  -33.3150  -35.2485 H   0  0  0  0  0  0  0  0  0  0  0  0
  -12.5286  -26.9266  -37.9211 H   0  0  0  0  0  0  0  0  0  0  0  0
  -18.0895  -23.8613  -36.4771 H   0  0  0  0  0  0  0  0  0  0  0  0
  -10.3817  -28.0668  -37.5117 H   0  0  0  0  0  0  0  0  0  0  0  0
  -20.0974  -23.7045  -37.8821 H   0  0  0  0  0  0  0  0  0  0  0  0
  -11.8969  -24.4763  -34.4366 H   0  0  0  0  0  0  0  0  0  0  0  0
  -15.6831  -24.6228  -39.9610 H   0  0  0  0  0  0  0  0  0  0  0  0
   -9.8182  -26.0777  -32.8170 H   0  0  0  0  0  0  0  0  0  0  0  0
   -8.4545  -25.6854  -33.8930 H   0  0  0  0  0  0  0  0  0  0  0  0
   -9.6323  -24.4382  -33.4875 H   0  0  0  0  0  0  0  0  0  0  0  0
   -8.6680  -28.9182  -37.0759 H   0  0  0  0  0  0  0  0  0  0  0  0
   -9.5763  -29.4361  -35.6464 H   0  0  0  0  0  0  0  0  0  0  0  0
   -7.8086  -31.5513  -36.0714 H   0  0  0  0  0  0  0  0  0  0  0  0
  -13.8032  -24.2304  -35.7760 H   0  0  0  0  0  0  0  0  0  0  0  0
  -15.5577  -23.6845  -36.5467 H   0  0  0  0  0  0  0  0  0  0  0  0
  1  2  2  0  0  0  0
  1  3  1  0  0  0  0
  2  4  1  0  0  0  0
  3 12  2  0  0  0  0
  4 13  2  0  0  0  0
  5  7  2  0  0  0  0
  5 14  1  0  0  0  0
  6  8  1  0  0  0  0
  6 15  2  0  0  0  0
  7 16  1  0  0  0  0
  8 17  2  0  0  0  0
  9 11  1  0  0  0  0
  9 14  2  0  0  0  0
 10 15  1  0  0  0  0
 10 18  2  0  0  0  0
 11 16  2  0  0  0  0
 11 21  1  0  0  0  0
 12 13  1  0  0  0  0
 12 23  1  0  0  0  0
 13 24  1  0  0  0  0
 14 25  1  0  0  0  0
 15 26  1  0  0  0  0
 16 28  1  0  0  0  0
 17 18  1  0  0  0  0
 17 29  1  0  0  0  0
 18 30  1  0  0  0  0
 19 22  1  0  0  0  0
 19 23  2  0  0  0  0
 19 24  1  0  0  0  0
 20 25  1  0  0  0  0
 20 26  1  0  0  0  0
 20 27  2  0  0  0  0
 22 28  1  0  0  0  0
  1 31  1  0  0  0  0
  2 32  1  0  0  0  0
  3 33  1  0  0  0  0
  4 34  1  0  0  0  0
  5 35  1  0  0  0  0
  6 36  1  0  0  0  0
  7 37  1  0  0  0  0
  8 38  1  0  0  0  0
  9 39  1  0  0  0  0
 10 40  1  0  0  0  0
 21 41  1  0  0  0  0
 21 42  1  0  0  0  0
 21 43  1  0  0  0  0
 22 44  1  0  0  0  0
 22 45  1  0  0  0  0
 24 46  1  0  0  0  0
 25 47  1  0  0  0  0
 26 48  1  0  0  0  0
M  END
> <Name>
EZ_175a

> <SourceTag>
EZ_175a

> <Activity_sEH>
4.9

> <Activity_FLAP>
0.4

> <Gold.Version>
5.2

> <Gold.Id.Protein>
6HGV|6HGV_protein|mol2

> <Gold.Goldscore.Fitness>
73.9569

> <Gold.Goldscore.Internal.Vdw>
-12.1401

> <Gold.Goldscore.Internal.Torsion>
-4.4352

> <Gold.Goldscore.External.Vdw>
55.0716

> <Gold.Goldscore.Internal.HBond>
0.0000

> <Gold.Goldscore.External.HBond>
4.4029

> <Gold.Goldscore.Internal.Correction>
-10.4058

> <Gold.Goldscore.Hbonds>
donor molecule, donor type, donor heavy atom, donor atom, acceptor molecule, acceptor atom, score
      L1  H    25    47       P1   853  0.66
      L1  H    26    48       P1   853  0.07

> <Gold.Goldscore.Internal.Vdw.Weighted>
-12.1401

> <Gold.Goldscore.Internal.Torsion.Weighted>
-4.4352

> <Gold.Goldscore.External.Vdw.Weighted>
75.7235

> <Gold.Goldscore.Internal.HBond.Weighted>
0.0000

> <Gold.Goldscore.External.HBond.Weighted>
4.4029

> <Gold.Goldscore.Internal.Correction.Weighted>
-10.4058

> <Gold.Protein.RotatedTorsions>
[ 3781 1176 1175 1172 ] final  -38.74 input   60.00 | X-H torsion
[ 3847 1247 1246 1244 ] final  -64.78 input   60.00 | X-H torsion
[ 4507 1931 1930 1928 ] final  105.31 input   60.00 | X-H torsion
[ 3677 1070 1069 1066 ] final  -94.88 input   60.00 | X-H torsion
[ 3525  925  924  922 ] final    3.31 input   59.99 | X-H torsion
[ 4531 1957 1955 1953 ] final  -34.49 input   60.00 | X-H torsion

> <Gold.Protein.ActiveResidues>
 PHE267  PRO268  MET310  ASP335  TRP336  MET339  TYR343  THR360  PRO361  ILE363 
 PRO371  SER374  ILE375  ASN378  PHE381  TYR383  GLN384  PHE387  LEU408  LEU417 
 MET419  LEU428  TYR466  MET469  ASN472  ASP496  VAL498  LEU499  MET503  HIS524 
 TRP525 

> <Gold.Protein.RotatedAtoms>
   -3.5660  -29.5555  -30.5188 H   0  0  0  0  0  0  0  0  0  0  0  0  # atno 3525 bound_to 925 
  -11.8103  -23.7849  -31.3973 H   0  0  0  0  0  0  0  0  0  0  0  0  # atno 3677 bound_to 1070
  -10.4977  -36.8819  -34.0797 H   0  0  0  0  0  0  0  0  0  0  0  0  # atno 3781 bound_to 1176
  -16.0514  -27.7993  -37.2723 H   0  0  0  0  0  0  0  0  0  0  0  0  # atno 3847 bound_to 1247
  -12.4320  -24.0752  -39.1638 H   0  0  0  0  0  0  0  0  0  0  0  0  # atno 4507 bound_to 1931
   -2.3857  -32.2198  -36.7738 H   0  0  0  0  0  0  0  0  0  0  0  0  # atno 4531 bound_to 1957
   -9.2415  -36.3794  -33.1756 LP  0  0  0  0  0  0  0  0  0  0  0  0  # atno 5205 bound_to 1176
  -10.3682  -37.3717  -32.5333 LP  0  0  0  0  0  0  0  0  0  0  0  0  # atno 5206 bound_to 1176
  -14.6068  -27.4906  -37.9547 LP  0  0  0  0  0  0  0  0  0  0  0  0  # atno 5215 bound_to 1247
  -14.9001  -28.9492  -37.2816 LP  0  0  0  0  0  0  0  0  0  0  0  0  # atno 5216 bound_to 1247
  -13.4074  -25.3739  -39.2642 LP  0  0  0  0  0  0  0  0  0  0  0  0  # atno 5217 bound_to 1931
  -13.3598  -24.2886  -40.4835 LP  0  0  0  0  0  0  0  0  0  0  0  0  # atno 5218 bound_to 1931
  -11.2816  -22.3492  -30.8427 LP  0  0  0  0  0  0  0  0  0  0  0  0  # atno 5224 bound_to 1070
  -12.7632  -22.8940  -30.4245 LP  0  0  0  0  0  0  0  0  0  0  0  0  # atno 5225 bound_to 1070

$$$$
EZ_18b|Lisa_paper2_min|sdf|6|dock4
  -GOLD-  10182016593D 1   1.00000     0.00000

 60 63  0  0  0  0  0  0  0  0  1 V2000
   -2.9459  -29.8347  -32.8371 C   0  0  0  0  0  0  0  0  0  0  0  0
   -3.3023  -31.1782  -32.9339 C   0  0  0  0  0  0  0  0  0  0  0  0
   -3.8212  -28.8314  -33.2630 C   0  0  0  0  0  0  0  0  0  0  0  0
   -4.5414  -31.5634  -33.4576 C   0  0  0  0  0  0  0  0  0  0  0  0
  -11.0394  -24.8867  -35.3535 C   0  0  0  0  0  0  0  0  0  0  0  0
  -11.7229  -26.8615  -36.5657 C   0  0  0  0  0  0  0  0  0  0  0  0
  -17.6304  -24.0394  -37.6786 C   0  0  0  0  0  0  0  0  0  0  0  0
   -9.8086  -25.4822  -35.0772 C   0  0  0  0  0  0  0  0  0  0  0  0
  -10.4921  -27.4571  -36.2894 C   0  0  0  0  0  0  0  0  0  0  0  0
  -18.7417  -23.9971  -38.5205 C   0  0  0  0  0  0  0  0  0  0  0  0
  -16.2405  -24.6866  -39.5456 C   0  0  0  0  0  0  0  0  0  0  0  0
   -5.0705  -29.2009  -33.7922 C   0  0  0  0  0  0  0  0  0  0  0  0
   -5.4135  -30.5505  -33.8826 C   0  0  0  0  0  0  0  0  0  0  0  0
  -11.9964  -25.5764  -36.0977 C   0  0  0  0  0  0  0  0  0  0  0  0
  -16.3797  -24.3841  -38.1911 C   0  0  0  0  0  0  0  0  0  0  0  0
   -9.5350  -26.7673  -35.5451 C   0  0  0  0  0  0  0  0  0  0  0  0
  -18.6023  -24.2996  -39.8750 C   0  0  0  0  0  0  0  0  0  0  0  0
  -17.3517  -24.6443  -40.3876 C   0  0  0  0  0  0  0  0  0  0  0  0
   -7.0210  -29.2357  -34.6420 C   0  0  0  0  0  0  0  0  0  0  0  0
   -7.4743  -31.6790  -34.7320 C   0  0  0  0  0  0  0  0  0  0  0  0
  -14.1275  -25.2610  -37.4312 C   0  0  0  0  0  0  0  0  0  0  0  0
   -8.7893  -33.8769  -33.5388 C   0  0  0  0  0  0  0  0  0  0  0  0
   -8.0394  -34.1785  -35.9171 C   0  0  0  0  0  0  0  0  0  0  0  0
   -6.7022  -35.1887  -34.0464 C   0  0  0  0  0  0  0  0  0  0  0  0
   -8.3038  -28.7763  -35.2225 C   0  0  0  0  0  0  0  0  0  0  0  0
   -7.5845  -34.0147  -34.4684 C   0  0  0  0  0  0  0  0  0  0  0  0
   -6.0776  -28.4048  -34.2671 N   0  0  0  0  0  0  0  0  0  0  0  0
   -6.6875  -30.5598  -34.4379 N   0  0  0  0  0  0  0  0  0  0  0  0
  -13.2275  -24.9809  -36.3741 N   0  0  0  0  0  0  0  0  0  0  0  0
  -15.2527  -24.4263  -37.3368 N   0  0  0  0  0  0  0  0  0  0  0  0
   -8.5856  -31.5638  -35.2219 O   0  0  0  0  0  0  0  0  0  0  0  0
  -13.9442  -26.1095  -38.2981 O   0  0  0  0  0  0  0  0  0  0  0  0
   -8.3275  -27.3517  -35.2741 O   0  0  0  0  0  0  0  0  0  0  0  0
   -6.8113  -32.8134  -34.3927 O   0  0  0  0  0  0  0  0  0  0  0  0
  -20.0173  -24.2324  -40.8659 Cl  0  0  0  0  0  0  0  0  0  0  0  0
  -17.1159  -25.0315  -42.0560 Cl  0  0  0  0  0  0  0  0  0  0  0  0
   -1.9774  -29.5624  -32.4265 H   0  0  0  0  0  0  0  0  0  0  0  0
   -2.6058  -31.9421  -32.5971 H   0  0  0  0  0  0  0  0  0  0  0  0
   -3.5365  -27.7866  -33.1849 H   0  0  0  0  0  0  0  0  0  0  0  0
   -4.7945  -32.6150  -33.5222 H   0  0  0  0  0  0  0  0  0  0  0  0
  -11.2419  -23.8846  -34.9839 H   0  0  0  0  0  0  0  0  0  0  0  0
  -12.4612  -27.4086  -37.1466 H   0  0  0  0  0  0  0  0  0  0  0  0
  -17.7497  -23.8004  -36.6249 H   0  0  0  0  0  0  0  0  0  0  0  0
   -9.0670  -24.9398  -34.4970 H   0  0  0  0  0  0  0  0  0  0  0  0
  -10.2848  -28.4586  -36.6567 H   0  0  0  0  0  0  0  0  0  0  0  0
  -19.7084  -23.7250  -38.1041 H   0  0  0  0  0  0  0  0  0  0  0  0
  -15.2624  -24.9561  -39.9394 H   0  0  0  0  0  0  0  0  0  0  0  0
   -8.4731  -33.5792  -32.5327 H   0  0  0  0  0  0  0  0  0  0  0  0
   -9.5042  -33.1363  -33.9120 H   0  0  0  0  0  0  0  0  0  0  0  0
   -9.3097  -34.8352  -33.4283 H   0  0  0  0  0  0  0  0  0  0  0  0
   -8.9959  -33.6705  -36.0854 H   0  0  0  0  0  0  0  0  0  0  0  0
   -8.2045  -35.2350  -36.1572 H   0  0  0  0  0  0  0  0  0  0  0  0
   -7.3037  -33.7740  -36.6197 H   0  0  0  0  0  0  0  0  0  0  0  0
   -7.2525  -36.1344  -34.1107 H   0  0  0  0  0  0  0  0  0  0  0  0
   -5.8075  -35.2663  -34.6727 H   0  0  0  0  0  0  0  0  0  0  0  0
   -6.3879  -35.0843  -33.0016 H   0  0  0  0  0  0  0  0  0  0  0  0
   -8.4530  -29.1597  -36.2452 H   0  0  0  0  0  0  0  0  0  0  0  0
   -9.1657  -29.1150  -34.6245 H   0  0  0  0  0  0  0  0  0  0  0  0
  -13.5196  -24.2421  -35.7255 H   0  0  0  0  0  0  0  0  0  0  0  0
  -15.2650  -23.7683  -36.5616 H   0  0  0  0  0  0  0  0  0  0  0  0
  1  2  2  0  0  0  0
  1  3  1  0  0  0  0
  2  4  1  0  0  0  0
  3 12  2  0  0  0  0
  4 13  2  0  0  0  0
  5  8  1  0  0  0  0
  5 14  2  0  0  0  0
  6  9  2  0  0  0  0
  6 14  1  0  0  0  0
  7 10  1  0  0  0  0
  7 15  2  0  0  0  0
  8 16  2  0  0  0  0
  9 16  1  0  0  0  0
 10 17  2  0  0  0  0
 11 15  1  0  0  0  0
 11 18  2  0  0  0  0
 12 13  1  0  0  0  0
 12 27  1  0  0  0  0
 13 28  1  0  0  0  0
 14 29  1  0  0  0  0
 15 30  1  0  0  0  0
 16 33  1  0  0  0  0
 17 18  1  0  0  0  0
 17 35  1  0  0  0  0
 18 36  1  0  0  0  0
 19 25  1  0  0  0  0
 19 27  2  0  0  0  0
 19 28  1  0  0  0  0
 20 28  1  0  0  0  0
 20 31  2  0  0  0  0
 20 34  1  0  0  0  0
 21 29  1  0  0  0  0
 21 30  1  0  0  0  0
 21 32  2  0  0  0  0
 22 26  1  0  0  0  0
 23 26  1  0  0  0  0
 24 26  1  0  0  0  0
 25 33  1  0  0  0  0
 26 34  1  0  0  0  0
  1 37  1  0  0  0  0
  2 38  1  0  0  0  0
  3 39  1  0  0  0  0
  4 40  1  0  0  0  0
  5 41  1  0  0  0  0
  6 42  1  0  0  0  0
  7 43  1  0  0  0  0
  8 44  1  0  0  0  0
  9 45  1  0  0  0  0
 10 46  1  0  0  0  0
 11 47  1  0  0  0  0
 22 48  1  0  0  0  0
 22 49  1  0  0  0  0
 22 50  1  0  0  0  0
 23 51  1  0  0  0  0
 23 52  1  0  0  0  0
 23 53  1  0  0  0  0
 24 54  1  0  0  0  0
 24 55  1  0  0  0  0
 24 56  1  0  0  0  0
 25 57  1  0  0  0  0
 25 58  1  0  0  0  0
 29 59  1  0  0  0  0
 30 60  1  0  0  0  0
M  END
> <Name>
EZ_18b

> <SourceTag>
EZ_18b

> <Activity_FLAP>
100

> <Activity_sEH>
0.63

> <Gold.Version>
5.2

> <Gold.Id.Protein>
6HGV|6HGV_protein|mol2

> <Gold.Goldscore.Fitness>
92.5711

> <Gold.Goldscore.Internal.Vdw>
-13.5528

> <Gold.Goldscore.Internal.Torsion>
-6.0230

> <Gold.Goldscore.External.Vdw>
65.7471

> <Gold.Goldscore.Internal.HBond>
0.0000

> <Gold.Goldscore.External.HBond>
4.8511

> <Gold.Goldscore.Internal.Correction>
-16.8935

> <Gold.Goldscore.Hbonds>
donor molecule, donor type, donor heavy atom, donor atom, acceptor molecule, acceptor atom, score
      L1  H    29    59       P1   853  0.64
      L1  H    30    60       P1   853  0.17

> <Gold.Goldscore.Internal.Vdw.Weighted>
-13.5528

> <Gold.Goldscore.Internal.Torsion.Weighted>
-6.0230

> <Gold.Goldscore.External.Vdw.Weighted>
90.4023

> <Gold.Goldscore.Internal.HBond.Weighted>
0.0000

> <Gold.Goldscore.External.HBond.Weighted>
4.8511

> <Gold.Goldscore.Internal.Correction.Weighted>
-16.8935

> <Gold.Protein.RotatedTorsions>
[ 3781 1176 1175 1172 ] final  -51.55 input   60.00 | X-H torsion
[ 3847 1247 1246 1244 ] final  -78.17 input   60.00 | X-H torsion
[ 4507 1931 1930 1928 ] final  117.13 input   60.00 | X-H torsion
[ 3677 1070 1069 1066 ] final -110.27 input   60.00 | X-H torsion
[ 3525  925  924  922 ] final  -41.47 input   59.99 | X-H torsion
[ 4531 1957 1955 1953 ] final   13.71 input   60.00 | X-H torsion

> <Gold.Protein.ActiveResidues>
 PHE267  PRO268  MET310  ASP335  TRP336  MET339  TYR343  THR360  PRO361  ILE363 
 PRO371  SER374  ILE375  ASN378  PHE381  TYR383  GLN384  PHE387  LEU408  LEU417 
 MET419  LEU428  TYR466  MET469  ASN472  ASP496  VAL498  LEU499  MET503  HIS524 
 TRP525 

> <Gold.Protein.RotatedAtoms>
   -3.7702  -29.5290  -29.8359 H   0  0  0  0  0  0  0  0  0  0  0  0  # atno 3525 bound_to 925 
  -11.5899  -23.6743  -31.4427 H   0  0  0  0  0  0  0  0  0  0  0  0  # atno 3677 bound_to 1070
  -10.3430  -36.7557  -34.1411 H   0  0  0  0  0  0  0  0  0  0  0  0  # atno 3781 bound_to 1176
  -15.9890  -27.6132  -37.3680 H   0  0  0  0  0  0  0  0  0  0  0  0  # atno 3847 bound_to 1247
  -12.4398  -23.9584  -39.3171 H   0  0  0  0  0  0  0  0  0  0  0  0  # atno 4507 bound_to 1931
   -2.9850  -32.6826  -36.6678 H   0  0  0  0  0  0  0  0  0  0  0  0  # atno 4531 bound_to 1957
   -9.2442  -36.4547  -32.9792 LP  0  0  0  0  0  0  0  0  0  0  0  0  # atno 5205 bound_to 1176
  -10.5214  -37.4235  -32.6679 LP  0  0  0  0  0  0  0  0  0  0  0  0  # atno 5206 bound_to 1176
  -14.4679  -27.6608  -37.9441 LP  0  0  0  0  0  0  0  0  0  0  0  0  # atno 5215 bound_to 1247
  -15.1019  -28.9664  -37.1958 LP  0  0  0  0  0  0  0  0  0  0  0  0  # atno 5216 bound_to 1247
  -13.2901  -25.3311  -39.1155 LP  0  0  0  0  0  0  0  0  0  0  0  0  # atno 5217 bound_to 1931
  -13.4693  -24.4490  -40.4779 LP  0  0  0  0  0  0  0  0  0  0  0  0  # atno 5218 bound_to 1931
  -11.4516  -22.2358  -30.6944 LP  0  0  0  0  0  0  0  0  0  0  0  0  # atno 5224 bound_to 1070
  -12.8151  -23.1188  -30.5270 LP  0  0  0  0  0  0  0  0  0  0  0  0  # atno 5225 bound_to 1070

$$$$
EZ_18b|Lisa_paper2_min|sdf|6|dock1
  -GOLD-  10182016583D 1   1.00000     0.00000

 60 63  0  0  0  0  0  0  0  0  1 V2000
   -2.7767  -29.9972  -32.9591 C   0  0  0  0  0  0  0  0  0  0  0  0
   -3.1332  -31.3310  -33.1463 C   0  0  0  0  0  0  0  0  0  0  0  0
   -3.6716  -28.9688  -33.2682 C   0  0  0  0  0  0  0  0  0  0  0  0
   -4.3921  -31.6813  -33.6468 C   0  0  0  0  0  0  0  0  0  0  0  0
  -11.7080  -26.9220  -36.1561 C   0  0  0  0  0  0  0  0  0  0  0  0
  -10.9979  -24.8737  -35.0898 C   0  0  0  0  0  0  0  0  0  0  0  0
  -17.4752  -24.0324  -37.7192 C   0  0  0  0  0  0  0  0  0  0  0  0
  -10.5054  -27.5282  -35.7926 C   0  0  0  0  0  0  0  0  0  0  0  0
   -9.7954  -25.4798  -34.7263 C   0  0  0  0  0  0  0  0  0  0  0  0
  -18.5465  -24.0114  -38.6122 C   0  0  0  0  0  0  0  0  0  0  0  0
  -16.0152  -24.7912  -39.4882 C   0  0  0  0  0  0  0  0  0  0  0  0
   -4.9410  -29.3031  -33.7725 C   0  0  0  0  0  0  0  0  0  0  0  0
   -5.2838  -30.6435  -33.9544 C   0  0  0  0  0  0  0  0  0  0  0  0
  -11.9541  -25.5948  -35.8047 C   0  0  0  0  0  0  0  0  0  0  0  0
  -16.2096  -24.4222  -38.1571 C   0  0  0  0  0  0  0  0  0  0  0  0
   -9.5491  -26.8071  -35.0777 C   0  0  0  0  0  0  0  0  0  0  0  0
  -18.3521  -24.3804  -39.9433 C   0  0  0  0  0  0  0  0  0  0  0  0
  -17.0865  -24.7703  -40.3813 C   0  0  0  0  0  0  0  0  0  0  0  0
   -6.9251  -29.2828  -34.5410 C   0  0  0  0  0  0  0  0  0  0  0  0
   -7.3753  -31.7142  -34.8038 C   0  0  0  0  0  0  0  0  0  0  0  0
  -14.0153  -25.3055  -37.2493 C   0  0  0  0  0  0  0  0  0  0  0  0
   -6.6179  -35.2176  -34.0877 C   0  0  0  0  0  0  0  0  0  0  0  0
   -8.5782  -33.7870  -33.4396 C   0  0  0  0  0  0  0  0  0  0  0  0
   -8.1463  -34.2939  -35.8612 C   0  0  0  0  0  0  0  0  0  0  0  0
   -8.2324  -28.7869  -35.0298 C   0  0  0  0  0  0  0  0  0  0  0  0
   -7.5062  -34.0435  -34.4966 C   0  0  0  0  0  0  0  0  0  0  0  0
   -5.9691  -28.4782  -34.1413 N   0  0  0  0  0  0  0  0  0  0  0  0
   -6.5799  -30.6168  -34.4555 N   0  0  0  0  0  0  0  0  0  0  0  0
  -13.1569  -24.9884  -36.1684 N   0  0  0  0  0  0  0  0  0  0  0  0
  -15.1231  -24.4427  -37.2511 N   0  0  0  0  0  0  0  0  0  0  0  0
   -8.5064  -31.5676  -35.2366 O   0  0  0  0  0  0  0  0  0  0  0  0
  -13.8142  -26.2035  -38.0608 O   0  0  0  0  0  0  0  0  0  0  0  0
   -8.3693  -27.4018  -34.7210 O   0  0  0  0  0  0  0  0  0  0  0  0
   -6.6957  -32.8677  -34.5824 O   0  0  0  0  0  0  0  0  0  0  0  0
  -19.7195  -24.3367  -41.0000 Cl  0  0  0  0  0  0  0  0  0  0  0  0
  -16.7833  -25.2404  -42.0171 Cl  0  0  0  0  0  0  0  0  0  0  0  0
   -1.7926  -29.7521  -32.5688 H   0  0  0  0  0  0  0  0  0  0  0  0
   -2.4212  -32.1148  -32.8997 H   0  0  0  0  0  0  0  0  0  0  0  0
   -3.3868  -27.9317  -33.1201 H   0  0  0  0  0  0  0  0  0  0  0  0
   -4.6448  -32.7262  -33.7833 H   0  0  0  0  0  0  0  0  0  0  0  0
  -12.4462  -27.4934  -36.7131 H   0  0  0  0  0  0  0  0  0  0  0  0
  -11.1788  -23.8387  -34.8106 H   0  0  0  0  0  0  0  0  0  0  0  0
  -17.6372  -23.7415  -36.6844 H   0  0  0  0  0  0  0  0  0  0  0  0
  -10.3195  -28.5624  -36.0691 H   0  0  0  0  0  0  0  0  0  0  0  0
   -9.0542  -24.9129  -34.1694 H   0  0  0  0  0  0  0  0  0  0  0  0
  -19.5256  -23.7035  -38.2537 H   0  0  0  0  0  0  0  0  0  0  0  0
  -15.0258  -25.0956  -39.8237 H   0  0  0  0  0  0  0  0  0  0  0  0
   -7.1944  -36.1488  -34.0534 H   0  0  0  0  0  0  0  0  0  0  0  0
   -5.7817  -35.3516  -34.7816 H   0  0  0  0  0  0  0  0  0  0  0  0
   -6.2116  -35.0683  -33.0807 H   0  0  0  0  0  0  0  0  0  0  0  0
   -9.3358  -33.0888  -33.8136 H   0  0  0  0  0  0  0  0  0  0  0  0
   -8.1434  -33.3219  -32.5475 H   0  0  0  0  0  0  0  0  0  0  0  0
   -9.0787  -34.7131  -33.1387 H   0  0  0  0  0  0  0  0  0  0  0  0
   -7.4732  -33.9893  -36.6708 H   0  0  0  0  0  0  0  0  0  0  0  0
   -8.3985  -35.3502  -36.0006 H   0  0  0  0  0  0  0  0  0  0  0  0
   -9.0596  -33.6995  -35.9783 H   0  0  0  0  0  0  0  0  0  0  0  0
   -8.3360  -28.9076  -36.1207 H   0  0  0  0  0  0  0  0  0  0  0  0
   -9.0727  -29.3293  -34.5663 H   0  0  0  0  0  0  0  0  0  0  0  0
  -13.4597  -24.2094  -35.5741 H   0  0  0  0  0  0  0  0  0  0  0  0
  -15.1541  -23.7436  -36.5132 H   0  0  0  0  0  0  0  0  0  0  0  0
  1  2  2  0  0  0  0
  1  3  1  0  0  0  0
  2  4  1  0  0  0  0
  3 12  2  0  0  0  0
  4 13  2  0  0  0  0
  5  8  1  0  0  0  0
  5 14  2  0  0  0  0
  6  9  2  0  0  0  0
  6 14  1  0  0  0  0
  7 10  1  0  0  0  0
  7 15  2  0  0  0  0
  8 16  2  0  0  0  0
  9 16  1  0  0  0  0
 10 17  2  0  0  0  0
 11 15  1  0  0  0  0
 11 18  2  0  0  0  0
 12 13  1  0  0  0  0
 12 27  1  0  0  0  0
 13 28  1  0  0  0  0
 14 29  1  0  0  0  0
 15 30  1  0  0  0  0
 16 33  1  0  0  0  0
 17 18  1  0  0  0  0
 17 35  1  0  0  0  0
 18 36  1  0  0  0  0
 19 25  1  0  0  0  0
 19 27  2  0  0  0  0
 19 28  1  0  0  0  0
 20 28  1  0  0  0  0
 20 31  2  0  0  0  0
 20 34  1  0  0  0  0
 21 29  1  0  0  0  0
 21 30  1  0  0  0  0
 21 32  2  0  0  0  0
 22 26  1  0  0  0  0
 23 26  1  0  0  0  0
 24 26  1  0  0  0  0
 25 33  1  0  0  0  0
 26 34  1  0  0  0  0
  1 37  1  0  0  0  0
  2 38  1  0  0  0  0
  3 39  1  0  0  0  0
  4 40  1  0  0  0  0
  5 41  1  0  0  0  0
  6 42  1  0  0  0  0
  7 43  1  0  0  0  0
  8 44  1  0  0  0  0
  9 45  1  0  0  0  0
 10 46  1  0  0  0  0
 11 47  1  0  0  0  0
 22 48  1  0  0  0  0
 22 49  1  0  0  0  0
 22 50  1  0  0  0  0
 23 51  1  0  0  0  0
 23 52  1  0  0  0  0
 23 53  1  0  0  0  0
 24 54  1  0  0  0  0
 24 55  1  0  0  0  0
 24 56  1  0  0  0  0
 25 57  1  0  0  0  0
 25 58  1  0  0  0  0
 29 59  1  0  0  0  0
 30 60  1  0  0  0  0
M  END
> <Name>
EZ_18b

> <SourceTag>
EZ_18b

> <Activity_FLAP>
100

> <Activity_sEH>
0.63

> <Gold.Version>
5.2

> <Gold.Id.Protein>
6HGV|6HGV_protein|mol2

> <Gold.Goldscore.Fitness>
90.1480

> <Gold.Goldscore.Internal.Vdw>
-16.9722

> <Gold.Goldscore.Internal.Torsion>
-6.4684

> <Gold.Goldscore.External.Vdw>
64.5959

> <Gold.Goldscore.Internal.HBond>
0.0000

> <Gold.Goldscore.External.HBond>
4.4222

> <Gold.Goldscore.Internal.Correction>
-20.3470

> <Gold.Goldscore.Hbonds>
donor molecule, donor type, donor heavy atom, donor atom, acceptor molecule, acceptor atom, score
      L1  H    29    59       P1   853  0.55
      L1  H    30    60       P1   853  0.19

> <Gold.Goldscore.Internal.Vdw.Weighted>
-16.9722

> <Gold.Goldscore.Internal.Torsion.Weighted>
-6.4684

> <Gold.Goldscore.External.Vdw.Weighted>
88.8194

> <Gold.Goldscore.Internal.HBond.Weighted>
0.0000

> <Gold.Goldscore.External.HBond.Weighted>
4.4222

> <Gold.Goldscore.Internal.Correction.Weighted>
-20.3470

> <Gold.Protein.RotatedTorsions>
[ 3781 1176 1175 1172 ] final  -64.65 input   60.00 | X-H torsion
[ 3847 1247 1246 1244 ] final  -84.43 input   60.00 | X-H torsion
[ 4507 1931 1930 1928 ] final  110.09 input   60.00 | X-H torsion
[ 3677 1070 1069 1066 ] final -128.84 input   60.00 | X-H torsion
[ 3525  925  924  922 ] final  -10.64 input   59.99 | X-H torsion
[ 4531 1957 1955 1953 ] final    8.59 input   60.00 | X-H torsion

> <Gold.Protein.ActiveResidues>
 PHE267  PRO268  MET310  ASP335  TRP336  MET339  TYR343  THR360  PRO361  ILE363 
 PRO371  SER374  ILE375  ASN378  PHE381  TYR383  GLN384  PHE387  LEU408  LEU417 
 MET419  LEU428  TYR466  MET469  ASN472  ASP496  VAL498  LEU499  MET503  HIS524 
 TRP525 

> <Gold.Protein.RotatedAtoms>
   -3.6814  -29.5229  -30.3257 H   0  0  0  0  0  0  0  0  0  0  0  0  # atno 3525 bound_to 925 
  -11.3597  -23.4785  -31.4444 H   0  0  0  0  0  0  0  0  0  0  0  0  # atno 3677 bound_to 1070
  -10.1690  -36.6330  -34.1587 H   0  0  0  0  0  0  0  0  0  0  0  0  # atno 3781 bound_to 1176
  -15.9446  -27.5343  -37.4156 H   0  0  0  0  0  0  0  0  0  0  0  0  # atno 3847 bound_to 1247
  -12.4319  -24.0251  -39.2237 H   0  0  0  0  0  0  0  0  0  0  0  0  # atno 4507 bound_to 1931
   -2.9422  -32.6111  -36.6747 H   0  0  0  0  0  0  0  0  0  0  0  0  # atno 4531 bound_to 1957
   -9.2877  -36.5535  -32.7931 LP  0  0  0  0  0  0  0  0  0  0  0  0  # atno 5205 bound_to 1176
  -10.6531  -37.4483  -32.8362 LP  0  0  0  0  0  0  0  0  0  0  0  0  # atno 5206 bound_to 1176
  -14.4160  -27.7488  -37.9308 LP  0  0  0  0  0  0  0  0  0  0  0  0  # atno 5215 bound_to 1247
  -15.1985  -28.9579  -37.1611 LP  0  0  0  0  0  0  0  0  0  0  0  0  # atno 5216 bound_to 1247
  -13.3615  -25.3606  -39.2019 LP  0  0  0  0  0  0  0  0  0  0  0  0  # atno 5217 bound_to 1931
  -13.4058  -24.3523  -40.4856 LP  0  0  0  0  0  0  0  0  0  0  0  0  # atno 5218 bound_to 1931
  -11.7033  -22.1734  -30.5352 LP  0  0  0  0  0  0  0  0  0  0  0  0  # atno 5224 bound_to 1070
  -12.7952  -23.3783  -30.6846 LP  0  0  0  0  0  0  0  0  0  0  0  0  # atno 5225 bound_to 1070

$$$$
EZ_18b|Lisa_paper2_min|sdf|6|dock9
  -GOLD-  10182017 13D 1   1.00000     0.00000

 60 63  0  0  0  0  0  0  0  0  1 V2000
   -3.0415  -29.9932  -32.8707 C   0  0  0  0  0  0  0  0  0  0  0  0
   -3.4632  -31.3162  -32.9850 C   0  0  0  0  0  0  0  0  0  0  0  0
   -3.8546  -28.9443  -33.3098 C   0  0  0  0  0  0  0  0  0  0  0  0
   -4.7077  -31.6349  -33.5398 C   0  0  0  0  0  0  0  0  0  0  0  0
  -11.7274  -26.7474  -36.5643 C   0  0  0  0  0  0  0  0  0  0  0  0
  -11.2175  -24.8829  -35.1151 C   0  0  0  0  0  0  0  0  0  0  0  0
  -17.6798  -24.0866  -37.7696 C   0  0  0  0  0  0  0  0  0  0  0  0
  -10.5061  -27.3363  -36.2363 C   0  0  0  0  0  0  0  0  0  0  0  0
   -9.9963  -25.4718  -34.7870 C   0  0  0  0  0  0  0  0  0  0  0  0
  -18.7681  -24.0688  -38.6417 C   0  0  0  0  0  0  0  0  0  0  0  0
  -16.2191  -24.6686  -39.6038 C   0  0  0  0  0  0  0  0  0  0  0  0
   -5.1084  -29.2468  -33.8701 C   0  0  0  0  0  0  0  0  0  0  0  0
   -5.5171  -30.5767  -33.9777 C   0  0  0  0  0  0  0  0  0  0  0  0
  -12.0830  -25.5207  -36.0036 C   0  0  0  0  0  0  0  0  0  0  0  0
  -16.4052  -24.3864  -38.2505 C   0  0  0  0  0  0  0  0  0  0  0  0
   -9.6406  -26.6985  -35.3477 C   0  0  0  0  0  0  0  0  0  0  0  0
  -18.5820  -24.3510  -39.9951 C   0  0  0  0  0  0  0  0  0  0  0  0
  -17.3075  -24.6509  -40.4761 C   0  0  0  0  0  0  0  0  0  0  0  0
   -7.0377  -29.1775  -34.7648 C   0  0  0  0  0  0  0  0  0  0  0  0
   -7.6121  -31.5940  -34.8822 C   0  0  0  0  0  0  0  0  0  0  0  0
  -14.1768  -25.2435  -37.4030 C   0  0  0  0  0  0  0  0  0  0  0  0
   -8.2433  -34.0673  -36.1365 C   0  0  0  0  0  0  0  0  0  0  0  0
   -7.0050  -35.1289  -34.2263 C   0  0  0  0  0  0  0  0  0  0  0  0
   -9.0642  -33.7630  -33.7768 C   0  0  0  0  0  0  0  0  0  0  0  0
   -8.2818  -28.6501  -35.3714 C   0  0  0  0  0  0  0  0  0  0  0  0
   -7.8358  -33.9269  -34.6706 C   0  0  0  0  0  0  0  0  0  0  0  0
   -6.0624  -28.3977  -34.3625 N   0  0  0  0  0  0  0  0  0  0  0  0
   -6.7766  -30.5179  -34.5623 N   0  0  0  0  0  0  0  0  0  0  0  0
  -13.3044  -24.9316  -36.3317 N   0  0  0  0  0  0  0  0  0  0  0  0
  -15.3014  -24.4037  -37.3656 N   0  0  0  0  0  0  0  0  0  0  0  0
   -8.7044  -31.4197  -35.3967 O   0  0  0  0  0  0  0  0  0  0  0  0
  -13.9731  -26.1199  -38.2371 O   0  0  0  0  0  0  0  0  0  0  0  0
   -8.4425  -27.2762  -35.0258 O   0  0  0  0  0  0  0  0  0  0  0  0
   -7.0155  -32.7626  -34.5356 O   0  0  0  0  0  0  0  0  0  0  0  0
  -19.9704  -24.3162  -41.0243 Cl  0  0  0  0  0  0  0  0  0  0  0  0
  -17.0136  -25.0111  -42.1413 Cl  0  0  0  0  0  0  0  0  0  0  0  0
   -2.0703  -29.7728  -32.4361 H   0  0  0  0  0  0  0  0  0  0  0  0
   -2.8144  -32.1165  -32.6376 H   0  0  0  0  0  0  0  0  0  0  0  0
   -3.5193  -27.9158  -33.2179 H   0  0  0  0  0  0  0  0  0  0  0  0
   -5.0121  -32.6720  -33.6175 H   0  0  0  0  0  0  0  0  0  0  0  0
  -12.3942  -27.2534  -37.2579 H   0  0  0  0  0  0  0  0  0  0  0  0
  -11.4841  -23.9266  -34.6721 H   0  0  0  0  0  0  0  0  0  0  0  0
  -17.8356  -23.8637  -36.7171 H   0  0  0  0  0  0  0  0  0  0  0  0
  -10.2348  -28.2921  -36.6762 H   0  0  0  0  0  0  0  0  0  0  0  0
   -9.3262  -24.9700  -34.0941 H   0  0  0  0  0  0  0  0  0  0  0  0
  -19.7540  -23.8317  -38.2497 H   0  0  0  0  0  0  0  0  0  0  0  0
  -15.2226  -24.9031  -39.9730 H   0  0  0  0  0  0  0  0  0  0  0  0
   -8.4667  -35.1119  -36.3805 H   0  0  0  0  0  0  0  0  0  0  0  0
   -9.1235  -33.4596  -36.3705 H   0  0  0  0  0  0  0  0  0  0  0  0
   -7.4261  -33.7627  -36.8004 H   0  0  0  0  0  0  0  0  0  0  0  0
   -6.7704  -35.0674  -33.1574 H   0  0  0  0  0  0  0  0  0  0  0  0
   -6.0439  -35.1549  -34.7523 H   0  0  0  0  0  0  0  0  0  0  0  0
   -7.5280  -36.0726  -34.4127 H   0  0  0  0  0  0  0  0  0  0  0  0
   -9.6359  -34.6966  -33.7226 H   0  0  0  0  0  0  0  0  0  0  0  0
   -8.7864  -33.4684  -32.7596 H   0  0  0  0  0  0  0  0  0  0  0  0
   -9.7449  -33.0069  -34.1847 H   0  0  0  0  0  0  0  0  0  0  0  0
   -8.2683  -28.7285  -36.4710 H   0  0  0  0  0  0  0  0  0  0  0  0
   -9.1704  -29.2009  -35.0218 H   0  0  0  0  0  0  0  0  0  0  0  0
  -13.6113  -24.1716  -35.7153 H   0  0  0  0  0  0  0  0  0  0  0  0
  -15.3324  -23.7211  -36.6125 H   0  0  0  0  0  0  0  0  0  0  0  0
  1  2  2  0  0  0  0
  1  3  1  0  0  0  0
  2  4  1  0  0  0  0
  3 12  2  0  0  0  0
  4 13  2  0  0  0  0
  5  8  1  0  0  0  0
  5 14  2  0  0  0  0
  6  9  2  0  0  0  0
  6 14  1  0  0  0  0
  7 10  1  0  0  0  0
  7 15  2  0  0  0  0
  8 16  2  0  0  0  0
  9 16  1  0  0  0  0
 10 17  2  0  0  0  0
 11 15  1  0  0  0  0
 11 18  2  0  0  0  0
 12 13  1  0  0  0  0
 12 27  1  0  0  0  0
 13 28  1  0  0  0  0
 14 29  1  0  0  0  0
 15 30  1  0  0  0  0
 16 33  1  0  0  0  0
 17 18  1  0  0  0  0
 17 35  1  0  0  0  0
 18 36  1  0  0  0  0
 19 25  1  0  0  0  0
 19 27  2  0  0  0  0
 19 28  1  0  0  0  0
 20 28  1  0  0  0  0
 20 31  2  0  0  0  0
 20 34  1  0  0  0  0
 21 29  1  0  0  0  0
 21 30  1  0  0  0  0
 21 32  2  0  0  0  0
 22 26  1  0  0  0  0
 23 26  1  0  0  0  0
 24 26  1  0  0  0  0
 25 33  1  0  0  0  0
 26 34  1  0  0  0  0
  1 37  1  0  0  0  0
  2 38  1  0  0  0  0
  3 39  1  0  0  0  0
  4 40  1  0  0  0  0
  5 41  1  0  0  0  0
  6 42  1  0  0  0  0
  7 43  1  0  0  0  0
  8 44  1  0  0  0  0
  9 45  1  0  0  0  0
 10 46  1  0  0  0  0
 11 47  1  0  0  0  0
 22 48  1  0  0  0  0
 22 49  1  0  0  0  0
 22 50  1  0  0  0  0
 23 51  1  0  0  0  0
 23 52  1  0  0  0  0
 23 53  1  0  0  0  0
 24 54  1  0  0  0  0
 24 55  1  0  0  0  0
 24 56  1  0  0  0  0
 25 57  1  0  0  0  0
 25 58  1  0  0  0  0
 29 59  1  0  0  0  0
 30 60  1  0  0  0  0
M  END
> <Name>
EZ_18b

> <SourceTag>
EZ_18b

> <Activity_FLAP>
100

> <Activity_sEH>
0.63

> <Gold.Version>
5.2

> <Gold.Id.Protein>
6HGV|6HGV_protein|mol2

> <Gold.Goldscore.Fitness>
89.0880

> <Gold.Goldscore.Internal.Vdw>
-17.1449

> <Gold.Goldscore.Internal.Torsion>
-4.9749

> <Gold.Goldscore.External.Vdw>
65.3410

> <Gold.Goldscore.Internal.HBond>
0.0000

> <Gold.Goldscore.External.HBond>
4.4703

> <Gold.Goldscore.Internal.Correction>
-16.8935

> <Gold.Goldscore.Hbonds>
donor molecule, donor type, donor heavy atom, donor atom, acceptor molecule, acceptor atom, score
      P1  H  1247  3847       L1    32  0.03
      L1  H    29    59       P1   853  0.63
      L1  H    30    60       P1   853  0.11

> <Gold.Goldscore.Internal.Vdw.Weighted>
-17.1449

> <Gold.Goldscore.Internal.Torsion.Weighted>
-4.9749

> <Gold.Goldscore.External.Vdw.Weighted>
89.8439

> <Gold.Goldscore.Internal.HBond.Weighted>
0.0000

> <Gold.Goldscore.External.HBond.Weighted>
4.4703

> <Gold.Goldscore.Internal.Correction.Weighted>
-16.8935

> <Gold.Protein.RotatedTorsions>
[ 3781 1176 1175 1172 ] final  -22.54 input   60.00 | X-H torsion
[ 3847 1247 1246 1244 ] final  154.18 input   60.00 | X-H torsion
[ 4507 1931 1930 1928 ] final  114.04 input   60.00 | X-H torsion
[ 3677 1070 1069 1066 ] final -150.61 input   60.00 | X-H torsion
[ 3525  925  924  922 ] final  -22.55 input   59.99 | X-H torsion
[ 4531 1957 1955 1953 ] final   27.80 input   60.00 | X-H torsion

> <Gold.Protein.ActiveResidues>
 PHE267  PRO268  MET310  ASP335  TRP336  MET339  TYR343  THR360  PRO361  ILE363 
 PRO371  SER374  ILE375  ASN378  PHE381  TYR383  GLN384  PHE387  LEU408  LEU417 
 MET419  LEU428  TYR466  MET469  ASN472  ASP496  VAL498  LEU499  MET503  HIS524 
 TRP525 

> <Gold.Protein.RotatedAtoms>
   -3.7443  -29.5122  -30.1422 H   0  0  0  0  0  0  0  0  0  0  0  0  # atno 3525 bound_to 925 
  -11.1696  -23.1890  -31.3729 H   0  0  0  0  0  0  0  0  0  0  0  0  # atno 3677 bound_to 1070
  -10.6596  -37.0405  -33.9447 H   0  0  0  0  0  0  0  0  0  0  0  0  # atno 3781 bound_to 1176
  -14.4120  -27.7718  -37.9262 H   0  0  0  0  0  0  0  0  0  0  0  0  # atno 3847 bound_to 1247
  -12.4352  -23.9866  -39.2755 H   0  0  0  0  0  0  0  0  0  0  0  0  # atno 4507 bound_to 1931
   -3.0687  -32.8962  -36.6556 H   0  0  0  0  0  0  0  0  0  0  0  0  # atno 4531 bound_to 1957
   -9.2947  -36.3200  -33.4289 LP  0  0  0  0  0  0  0  0  0  0  0  0  # atno 5205 bound_to 1176
  -10.1521  -37.2715  -32.4159 LP  0  0  0  0  0  0  0  0  0  0  0  0  # atno 5206 bound_to 1176
  -15.2200  -28.9546  -37.1540 LP  0  0  0  0  0  0  0  0  0  0  0  0  # atno 5215 bound_to 1247
  -15.9379  -27.5129  -37.4237 LP  0  0  0  0  0  0  0  0  0  0  0  0  # atno 5216 bound_to 1247
  -13.3219  -25.3455  -39.1524 LP  0  0  0  0  0  0  0  0  0  0  0  0  # atno 5217 bound_to 1931
  -13.4422  -24.4063  -40.4829 LP  0  0  0  0  0  0  0  0  0  0  0  0  # atno 5218 bound_to 1931
  -12.0291  -22.2112  -30.3965 LP  0  0  0  0  0  0  0  0  0  0  0  0  # atno 5224 bound_to 1070
  -12.6608  -23.6321  -30.8952 LP  0  0  0  0  0  0  0  0  0  0  0  0  # atno 5225 bound_to 1070

$$$$
EZ_18b|Lisa_paper2_min|sdf|6|dock6
  -GOLD-  10182017 03D 1   1.00000     0.00000

 60 63  0  0  0  0  0  0  0  0  1 V2000
   -2.8959  -30.1831  -32.7389 C   0  0  0  0  0  0  0  0  0  0  0  0
   -3.2989  -31.5153  -32.8038 C   0  0  0  0  0  0  0  0  0  0  0  0
   -3.7357  -29.1604  -33.1895 C   0  0  0  0  0  0  0  0  0  0  0  0
   -4.5507  -31.8695  -33.3191 C   0  0  0  0  0  0  0  0  0  0  0  0
  -10.8664  -25.0555  -35.2603 C   0  0  0  0  0  0  0  0  0  0  0  0
  -11.5655  -26.9820  -36.5396 C   0  0  0  0  0  0  0  0  0  0  0  0
  -16.0674  -24.7529  -39.4714 C   0  0  0  0  0  0  0  0  0  0  0  0
   -9.6512  -25.6814  -34.9819 C   0  0  0  0  0  0  0  0  0  0  0  0
  -10.3504  -27.6079  -36.2612 C   0  0  0  0  0  0  0  0  0  0  0  0
  -17.1842  -24.6967  -40.3052 C   0  0  0  0  0  0  0  0  0  0  0  0
  -17.4265  -24.0471  -37.6029 C   0  0  0  0  0  0  0  0  0  0  0  0
   -4.9971  -29.4988  -33.7106 C   0  0  0  0  0  0  0  0  0  0  0  0
   -5.3869  -30.8374  -33.7690 C   0  0  0  0  0  0  0  0  0  0  0  0
  -11.8234  -25.7059  -36.0392 C   0  0  0  0  0  0  0  0  0  0  0  0
  -16.1884  -24.4281  -38.1203 C   0  0  0  0  0  0  0  0  0  0  0  0
   -9.3932  -26.9575  -35.4823 C   0  0  0  0  0  0  0  0  0  0  0  0
  -18.4223  -24.3156  -39.7877 C   0  0  0  0  0  0  0  0  0  0  0  0
  -18.5434  -23.9909  -38.4366 C   0  0  0  0  0  0  0  0  0  0  0  0
   -6.9476  -29.4860  -34.5610 C   0  0  0  0  0  0  0  0  0  0  0  0
   -7.4858  -31.9135  -34.5928 C   0  0  0  0  0  0  0  0  0  0  0  0
  -13.9562  -25.3553  -37.3610 C   0  0  0  0  0  0  0  0  0  0  0  0
   -6.8641  -35.4061  -33.6997 C   0  0  0  0  0  0  0  0  0  0  0  0
   -8.7853  -33.9064  -33.0920 C   0  0  0  0  0  0  0  0  0  0  0  0
   -8.3438  -34.4589  -35.5019 C   0  0  0  0  0  0  0  0  0  0  0  0
   -8.2137  -28.9962  -35.1533 C   0  0  0  0  0  0  0  0  0  0  0  0
   -7.7107  -34.2104  -34.1337 C   0  0  0  0  0  0  0  0  0  0  0  0
   -5.9759  -28.6796  -34.2053 N   0  0  0  0  0  0  0  0  0  0  0  0
   -6.6605  -30.8156  -34.3250 N   0  0  0  0  0  0  0  0  0  0  0  0
  -13.0389  -25.0800  -36.3177 N   0  0  0  0  0  0  0  0  0  0  0  0
  -15.0554  -24.4859  -37.2749 N   0  0  0  0  0  0  0  0  0  0  0  0
   -8.5924  -31.7714  -35.0862 O   0  0  0  0  0  0  0  0  0  0  0  0
  -13.8058  -26.2268  -38.2114 O   0  0  0  0  0  0  0  0  0  0  0  0
   -8.2011  -27.5716  -35.2091 O   0  0  0  0  0  0  0  0  0  0  0  0
   -6.8627  -33.0618  -34.2259 O   0  0  0  0  0  0  0  0  0  0  0  0
  -19.7675  -24.2624  -40.8720 Cl  0  0  0  0  0  0  0  0  0  0  0  0
  -20.0495  -23.5096  -37.7373 Cl  0  0  0  0  0  0  0  0  0  0  0  0
   -1.9185  -29.9349  -32.3342 H   0  0  0  0  0  0  0  0  0  0  0  0
   -2.6294  -32.2947  -32.4483 H   0  0  0  0  0  0  0  0  0  0  0  0
   -3.4148  -28.1246  -33.1362 H   0  0  0  0  0  0  0  0  0  0  0  0
   -4.8402  -32.9130  -33.3587 H   0  0  0  0  0  0  0  0  0  0  0  0
  -11.0567  -24.0608  -34.8652 H   0  0  0  0  0  0  0  0  0  0  0  0
  -12.3040  -27.4985  -37.1476 H   0  0  0  0  0  0  0  0  0  0  0  0
  -15.1076  -25.0525  -39.8845 H   0  0  0  0  0  0  0  0  0  0  0  0
   -8.9096  -25.1696  -34.3747 H   0  0  0  0  0  0  0  0  0  0  0  0
  -10.1552  -28.6022  -36.6538 H   0  0  0  0  0  0  0  0  0  0  0  0
  -17.0716  -24.9546  -41.3552 H   0  0  0  0  0  0  0  0  0  0  0  0
  -17.5145  -23.7936  -36.5483 H   0  0  0  0  0  0  0  0  0  0  0  0
   -6.1313  -35.6655  -34.4720 H   0  0  0  0  0  0  0  0  0  0  0  0
   -6.3289  -35.2039  -32.7662 H   0  0  0  0  0  0  0  0  0  0  0  0
   -7.4885  -36.2953  -33.5550 H   0  0  0  0  0  0  0  0  0  0  0  0
   -9.4173  -34.7843  -32.9157 H   0  0  0  0  0  0  0  0  0  0  0  0
   -9.4530  -33.1104  -33.4410 H   0  0  0  0  0  0  0  0  0  0  0  0
   -8.3469  -33.5975  -32.1375 H   0  0  0  0  0  0  0  0  0  0  0  0
   -8.4406  -35.5328  -35.6988 H   0  0  0  0  0  0  0  0  0  0  0  0
   -9.3366  -34.0033  -35.5756 H   0  0  0  0  0  0  0  0  0  0  0  0
   -7.7143  -34.0533  -36.3021 H   0  0  0  0  0  0  0  0  0  0  0  0
   -8.3642  -29.3789  -36.1761 H   0  0  0  0  0  0  0  0  0  0  0  0
   -9.0887  -29.3113  -34.5614 H   0  0  0  0  0  0  0  0  0  0  0  0
  -13.3032  -24.3195  -35.6824 H   0  0  0  0  0  0  0  0  0  0  0  0
  -15.0414  -23.8118  -36.5136 H   0  0  0  0  0  0  0  0  0  0  0  0
  1  2  2  0  0  0  0
  1  3  1  0  0  0  0
  2  4  1  0  0  0  0
  3 12  2  0  0  0  0
  4 13  2  0  0  0  0
  5  8  1  0  0  0  0
  5 14  2  0  0  0  0
  6  9  2  0  0  0  0
  6 14  1  0  0  0  0
  7 10  1  0  0  0  0
  7 15  2  0  0  0  0
  8 16  2  0  0  0  0
  9 16  1  0  0  0  0
 10 17  2  0  0  0  0
 11 15  1  0  0  0  0
 11 18  2  0  0  0  0
 12 13  1  0  0  0  0
 12 27  1  0  0  0  0
 13 28  1  0  0  0  0
 14 29  1  0  0  0  0
 15 30  1  0  0  0  0
 16 33  1  0  0  0  0
 17 18  1  0  0  0  0
 17 35  1  0  0  0  0
 18 36  1  0  0  0  0
 19 25  1  0  0  0  0
 19 27  2  0  0  0  0
 19 28  1  0  0  0  0
 20 28  1  0  0  0  0
 20 31  2  0  0  0  0
 20 34  1  0  0  0  0
 21 29  1  0  0  0  0
 21 30  1  0  0  0  0
 21 32  2  0  0  0  0
 22 26  1  0  0  0  0
 23 26  1  0  0  0  0
 24 26  1  0  0  0  0
 25 33  1  0  0  0  0
 26 34  1  0  0  0  0
  1 37  1  0  0  0  0
  2 38  1  0  0  0  0
  3 39  1  0  0  0  0
  4 40  1  0  0  0  0
  5 41  1  0  0  0  0
  6 42  1  0  0  0  0
  7 43  1  0  0  0  0
  8 44  1  0  0  0  0
  9 45  1  0  0  0  0
 10 46  1  0  0  0  0
 11 47  1  0  0  0  0
 22 48  1  0  0  0  0
 22 49  1  0  0  0  0
 22 50  1  0  0  0  0
 23 51  1  0  0  0  0
 23 52  1  0  0  0  0
 23 53  1  0  0  0  0
 24 54  1  0  0  0  0
 24 55  1  0  0  0  0
 24 56  1  0  0  0  0
 25 57  1  0  0  0  0
 25 58  1  0  0  0  0
 29 59  1  0  0  0  0
 30 60  1  0  0  0  0
M  END
> <Name>
EZ_18b

> <SourceTag>
EZ_18b

> <Activity_FLAP>
100

> <Activity_sEH>
0.63

> <Gold.Version>
5.2

> <Gold.Id.Protein>
6HGV|6HGV_protein|mol2

> <Gold.Goldscore.Fitness>
89.0830

> <Gold.Goldscore.Internal.Vdw>
-13.0283

> <Gold.Goldscore.Internal.Torsion>
-6.9436

> <Gold.Goldscore.External.Vdw>
62.8734

> <Gold.Goldscore.Internal.HBond>
0.0000

> <Gold.Goldscore.External.HBond>
5.7105

> <Gold.Goldscore.Internal.Correction>
-16.8935

> <Gold.Goldscore.Hbonds>
donor molecule, donor type, donor heavy atom, donor atom, acceptor molecule, acceptor atom, score
      L1  H    29    59       P1   853  0.62
      L1  H    30    60       P1   853  0.33

> <Gold.Goldscore.Internal.Vdw.Weighted>
-13.0283

> <Gold.Goldscore.Internal.Torsion.Weighted>
-6.9436

> <Gold.Goldscore.External.Vdw.Weighted>
86.4509

> <Gold.Goldscore.Internal.HBond.Weighted>
0.0000

> <Gold.Goldscore.External.HBond.Weighted>
5.7105

> <Gold.Goldscore.Internal.Correction.Weighted>
-16.8935

> <Gold.Protein.RotatedTorsions>
[ 3781 1176 1175 1172 ] final  -44.96 input   60.00 | X-H torsion
[ 3847 1247 1246 1244 ] final  -83.73 input   60.00 | X-H torsion
[ 4507 1931 1930 1928 ] final  130.63 input   60.00 | X-H torsion
[ 3677 1070 1069 1066 ] final -108.12 input   60.00 | X-H torsion
[ 3525  925  924  922 ] final  -26.15 input   59.99 | X-H torsion
[ 4531 1957 1955 1953 ] final   10.80 input   60.00 | X-H torsion

> <Gold.Protein.ActiveResidues>
 PHE267  PRO268  MET310  ASP335  TRP336  MET339  TYR343  THR360  PRO361  ILE363 
 PRO371  SER374  ILE375  ASN378  PHE381  TYR383  GLN384  PHE387  LEU408  LEU417 
 MET419  LEU428  TYR466  MET469  ASN472  ASP496  VAL498  LEU499  MET503  HIS524 
 TRP525 

> <Gold.Protein.RotatedAtoms>
   -3.7564  -29.5122  -30.0846 H   0  0  0  0  0  0  0  0  0  0  0  0  # atno 3525 bound_to 925 
  -11.6194  -23.6927  -31.4387 H   0  0  0  0  0  0  0  0  0  0  0  0  # atno 3677 bound_to 1070
  -10.4250  -36.8203  -34.1148 H   0  0  0  0  0  0  0  0  0  0  0  0  # atno 3781 bound_to 1176
  -15.9501  -27.5429  -37.4101 H   0  0  0  0  0  0  0  0  0  0  0  0  # atno 3847 bound_to 1247
  -12.4811  -23.8575  -39.5083 H   0  0  0  0  0  0  0  0  0  0  0  0  # atno 4507 bound_to 1931
   -2.9614  -32.6415  -36.6716 H   0  0  0  0  0  0  0  0  0  0  0  0  # atno 4531 bound_to 1957
   -9.2378  -36.4131  -33.0791 LP  0  0  0  0  0  0  0  0  0  0  0  0  # atno 5205 bound_to 1176
  -10.4451  -37.4001  -32.5945 LP  0  0  0  0  0  0  0  0  0  0  0  0  # atno 5206 bound_to 1176
  -14.4214  -27.7386  -37.9325 LP  0  0  0  0  0  0  0  0  0  0  0  0  # atno 5215 bound_to 1247
  -15.1876  -28.9594  -37.1648 LP  0  0  0  0  0  0  0  0  0  0  0  0  # atno 5216 bound_to 1247
  -13.1448  -25.2434  -38.9729 LP  0  0  0  0  0  0  0  0  0  0  0  0  # atno 5217 bound_to 1931
  -13.5731  -24.6383  -40.4279 LP  0  0  0  0  0  0  0  0  0  0  0  0  # atno 5218 bound_to 1931
  -11.4255  -22.2484  -30.7145 LP  0  0  0  0  0  0  0  0  0  0  0  0  # atno 5224 bound_to 1070
  -12.8115  -23.0876  -30.5110 LP  0  0  0  0  0  0  0  0  0  0  0  0  # atno 5225 bound_to 1070

$$$$
EZ_18b|Lisa_paper2_min|sdf|6|dock3
  -GOLD-  10182016593D 1   1.00000     0.00000

 60 63  0  0  0  0  0  0  0  0  1 V2000
   -3.0230  -30.0256  -33.0300 C   0  0  0  0  0  0  0  0  0  0  0  0
   -3.3456  -31.3643  -33.2427 C   0  0  0  0  0  0  0  0  0  0  0  0
   -3.9523  -29.0162  -33.2976 C   0  0  0  0  0  0  0  0  0  0  0  0
   -4.6036  -31.7385  -33.7281 C   0  0  0  0  0  0  0  0  0  0  0  0
  -10.7564  -24.7560  -35.5531 C   0  0  0  0  0  0  0  0  0  0  0  0
  -11.8551  -26.7826  -36.2761 C   0  0  0  0  0  0  0  0  0  0  0  0
  -16.5743  -23.0666  -39.1436 C   0  0  0  0  0  0  0  0  0  0  0  0
   -9.7610  -25.5152  -34.9379 C   0  0  0  0  0  0  0  0  0  0  0  0
  -10.8597  -27.5417  -35.6608 C   0  0  0  0  0  0  0  0  0  0  0  0
  -17.9228  -22.9732  -39.4879 C   0  0  0  0  0  0  0  0  0  0  0  0
  -17.1560  -24.4274  -37.2340 C   0  0  0  0  0  0  0  0  0  0  0  0
   -5.2213  -29.3746  -33.7862 C   0  0  0  0  0  0  0  0  0  0  0  0
   -5.5298  -30.7195  -33.9939 C   0  0  0  0  0  0  0  0  0  0  0  0
  -11.8034  -25.3898  -36.2222 C   0  0  0  0  0  0  0  0  0  0  0  0
  -16.1908  -23.7937  -38.0167 C   0  0  0  0  0  0  0  0  0  0  0  0
   -9.8126  -26.9080  -34.9917 C   0  0  0  0  0  0  0  0  0  0  0  0
  -18.8879  -23.6069  -38.7051 C   0  0  0  0  0  0  0  0  0  0  0  0
  -18.5045  -24.3340  -37.5781 C   0  0  0  0  0  0  0  0  0  0  0  0
   -7.2196  -29.3927  -34.5169 C   0  0  0  0  0  0  0  0  0  0  0  0
   -7.6064  -31.8290  -34.8299 C   0  0  0  0  0  0  0  0  0  0  0  0
  -14.1761  -24.9289  -36.9817 C   0  0  0  0  0  0  0  0  0  0  0  0
   -8.3134  -34.5280  -35.7952 C   0  0  0  0  0  0  0  0  0  0  0  0
   -6.7250  -35.2554  -33.9903 C   0  0  0  0  0  0  0  0  0  0  0  0
   -8.7361  -33.8702  -33.4028 C   0  0  0  0  0  0  0  0  0  0  0  0
   -8.5494  -28.9228  -34.9693 C   0  0  0  0  0  0  0  0  0  0  0  0
   -7.6704  -34.1521  -34.4610 C   0  0  0  0  0  0  0  0  0  0  0  0
   -6.2790  -28.5708  -34.1158 N   0  0  0  0  0  0  0  0  0  0  0  0
   -6.8355  -30.7179  -34.4701 N   0  0  0  0  0  0  0  0  0  0  0  0
  -12.7991  -24.6306  -36.8376 N   0  0  0  0  0  0  0  0  0  0  0  0
  -14.8229  -23.8887  -37.6683 N   0  0  0  0  0  0  0  0  0  0  0  0
   -8.7493  -31.7045  -35.2380 O   0  0  0  0  0  0  0  0  0  0  0  0
  -14.7172  -25.9483  -36.5654 O   0  0  0  0  0  0  0  0  0  0  0  0
   -8.8361  -27.6529  -34.3881 O   0  0  0  0  0  0  0  0  0  0  0  0
   -6.8905  -32.9676  -34.6491 O   0  0  0  0  0  0  0  0  0  0  0  0
  -20.5422  -23.4513  -39.1820 Cl  0  0  0  0  0  0  0  0  0  0  0  0
  -19.6533  -25.1391  -36.5677 Cl  0  0  0  0  0  0  0  0  0  0  0  0
   -2.0389  -29.7619  -32.6524 H   0  0  0  0  0  0  0  0  0  0  0  0
   -2.6073  -32.1331  -33.0284 H   0  0  0  0  0  0  0  0  0  0  0  0
   -3.6938  -27.9752  -33.1299 H   0  0  0  0  0  0  0  0  0  0  0  0
   -4.8294  -32.7866  -33.8850 H   0  0  0  0  0  0  0  0  0  0  0  0
  -10.7060  -23.6712  -35.5050 H   0  0  0  0  0  0  0  0  0  0  0  0
  -12.6664  -27.2873  -36.7946 H   0  0  0  0  0  0  0  0  0  0  0  0
  -15.8302  -22.5703  -39.7613 H   0  0  0  0  0  0  0  0  0  0  0  0
   -8.9478  -25.0158  -34.4183 H   0  0  0  0  0  0  0  0  0  0  0  0
  -10.9055  -28.6265  -35.7062 H   0  0  0  0  0  0  0  0  0  0  0  0
  -18.2033  -22.4035  -40.3703 H   0  0  0  0  0  0  0  0  0  0  0  0
  -16.8508  -24.9921  -36.3552 H   0  0  0  0  0  0  0  0  0  0  0  0
   -8.7568  -35.5288  -35.7458 H   0  0  0  0  0  0  0  0  0  0  0  0
   -9.0938  -33.8155  -36.0817 H   0  0  0  0  0  0  0  0  0  0  0  0
   -7.5643  -34.5609  -36.5947 H   0  0  0  0  0  0  0  0  0  0  0  0
   -5.9036  -35.3953  -34.7022 H   0  0  0  0  0  0  0  0  0  0  0  0
   -7.2474  -36.2169  -33.9287 H   0  0  0  0  0  0  0  0  0  0  0  0
   -6.2977  -35.0294  -33.0080 H   0  0  0  0  0  0  0  0  0  0  0  0
   -9.1175  -34.8037  -32.9734 H   0  0  0  0  0  0  0  0  0  0  0  0
   -8.3431  -33.2510  -32.5898 H   0  0  0  0  0  0  0  0  0  0  0  0
   -9.5984  -33.3582  -33.8449 H   0  0  0  0  0  0  0  0  0  0  0  0
   -8.5971  -28.8176  -36.0657 H   0  0  0  0  0  0  0  0  0  0  0  0
   -9.3491  -29.6241  -34.6797 H   0  0  0  0  0  0  0  0  0  0  0  0
  -12.4934  -23.7377  -37.2389 H   0  0  0  0  0  0  0  0  0  0  0  0
  -14.2421  -23.1043  -37.9535 H   0  0  0  0  0  0  0  0  0  0  0  0
  1  2  2  0  0  0  0
  1  3  1  0  0  0  0
  2  4  1  0  0  0  0
  3 12  2  0  0  0  0
  4 13  2  0  0  0  0
  5  8  1  0  0  0  0
  5 14  2  0  0  0  0
  6  9  2  0  0  0  0
  6 14  1  0  0  0  0
  7 10  1  0  0  0  0
  7 15  2  0  0  0  0
  8 16  2  0  0  0  0
  9 16  1  0  0  0  0
 10 17  2  0  0  0  0
 11 15  1  0  0  0  0
 11 18  2  0  0  0  0
 12 13  1  0  0  0  0
 12 27  1  0  0  0  0
 13 28  1  0  0  0  0
 14 29  1  0  0  0  0
 15 30  1  0  0  0  0
 16 33  1  0  0  0  0
 17 18  1  0  0  0  0
 17 35  1  0  0  0  0
 18 36  1  0  0  0  0
 19 25  1  0  0  0  0
 19 27  2  0  0  0  0
 19 28  1  0  0  0  0
 20 28  1  0  0  0  0
 20 31  2  0  0  0  0
 20 34  1  0  0  0  0
 21 29  1  0  0  0  0
 21 30  1  0  0  0  0
 21 32  2  0  0  0  0
 22 26  1  0  0  0  0
 23 26  1  0  0  0  0
 24 26  1  0  0  0  0
 25 33  1  0  0  0  0
 26 34  1  0  0  0  0
  1 37  1  0  0  0  0
  2 38  1  0  0  0  0
  3 39  1  0  0  0  0
  4 40  1  0  0  0  0
  5 41  1  0  0  0  0
  6 42  1  0  0  0  0
  7 43  1  0  0  0  0
  8 44  1  0  0  0  0
  9 45  1  0  0  0  0
 10 46  1  0  0  0  0
 11 47  1  0  0  0  0
 22 48  1  0  0  0  0
 22 49  1  0  0  0  0
 22 50  1  0  0  0  0
 23 51  1  0  0  0  0
 23 52  1  0  0  0  0
 23 53  1  0  0  0  0
 24 54  1  0  0  0  0
 24 55  1  0  0  0  0
 24 56  1  0  0  0  0
 25 57  1  0  0  0  0
 25 58  1  0  0  0  0
 29 59  1  0  0  0  0
 30 60  1  0  0  0  0
M  END
> <Name>
EZ_18b

> <SourceTag>
EZ_18b

> <Activity_FLAP>
100

> <Activity_sEH>
0.63

> <Gold.Version>
5.2

> <Gold.Id.Protein>
6HGV|6HGV_protein|mol2

> <Gold.Goldscore.Fitness>
88.0002

> <Gold.Goldscore.Internal.Vdw>
-10.6771

> <Gold.Goldscore.Internal.Torsion>
-8.6730

> <Gold.Goldscore.External.Vdw>
65.6508

> <Gold.Goldscore.Internal.HBond>
0.0000

> <Gold.Goldscore.External.HBond>
0.1870

> <Gold.Goldscore.Internal.Correction>
-16.8935

> <Gold.Goldscore.Hbonds>
donor molecule, donor type, donor heavy atom, donor atom, acceptor molecule, acceptor atom, score
      P1  H  1247  3847       L1    32  0.05
      L1  H    29    59       P1   854  0.01

> <Gold.Goldscore.Internal.Vdw.Weighted>
-10.6771

> <Gold.Goldscore.Internal.Torsion.Weighted>
-8.6730

> <Gold.Goldscore.External.Vdw.Weighted>
90.2698

> <Gold.Goldscore.Internal.HBond.Weighted>
0.0000

> <Gold.Goldscore.External.HBond.Weighted>
0.1870

> <Gold.Goldscore.Internal.Correction.Weighted>
-16.8935

> <Gold.Protein.RotatedTorsions>
[ 3781 1176 1175 1172 ] final  -12.87 input   60.00 | X-H torsion
[ 3847 1247 1246 1244 ] final -158.66 input   60.00 | X-H torsion
[ 4507 1931 1930 1928 ] final  -65.67 input   60.00 | X-H torsion
[ 3677 1070 1069 1066 ] final  -98.81 input   60.00 | X-H torsion
[ 3525  925  924  922 ] final  -21.18 input   59.99 | X-H torsion
[ 4531 1957 1955 1953 ] final   28.91 input   60.00 | X-H torsion

> <Gold.Protein.ActiveResidues>
 PHE267  PRO268  MET310  ASP335  TRP336  MET339  TYR343  THR360  PRO361  ILE363 
 PRO371  SER374  ILE375  ASN378  PHE381  TYR383  GLN384  PHE387  LEU408  LEU417 
 MET419  LEU428  TYR466  MET469  ASN472  ASP496  VAL498  LEU499  MET503  HIS524 
 TRP525 

> <Gold.Protein.RotatedAtoms>
   -3.7389  -29.5126  -30.1639 H   0  0  0  0  0  0  0  0  0  0  0  0  # atno 3525 bound_to 925 
  -11.7524  -23.7616  -31.4126 H   0  0  0  0  0  0  0  0  0  0  0  0  # atno 3677 bound_to 1070
  -10.7333  -37.1298  -33.8374 H   0  0  0  0  0  0  0  0  0  0  0  0  # atno 3781 bound_to 1176
  -14.9624  -27.2643  -37.9044 H   0  0  0  0  0  0  0  0  0  0  0  0  # atno 3847 bound_to 1247
  -13.6920  -25.1739  -39.9942 H   0  0  0  0  0  0  0  0  0  0  0  0  # atno 4507 bound_to 1931
   -3.0730  -32.9138  -36.6551 H   0  0  0  0  0  0  0  0  0  0  0  0  # atno 4531 bound_to 1957
   -9.3550  -36.3054  -33.5753 LP  0  0  0  0  0  0  0  0  0  0  0  0  # atno 5205 bound_to 1176
  -10.0175  -37.1960  -32.3776 LP  0  0  0  0  0  0  0  0  0  0  0  0  # atno 5206 bound_to 1176
  -14.5610  -28.7826  -37.4784 LP  0  0  0  0  0  0  0  0  0  0  0  0  # atno 5215 bound_to 1247
  -16.0426  -28.1960  -37.1213 LP  0  0  0  0  0  0  0  0  0  0  0  0  # atno 5216 bound_to 1247
  -12.8121  -23.8110  -40.1226 LP  0  0  0  0  0  0  0  0  0  0  0  0  # atno 5217 bound_to 1931
  -12.6862  -24.7450  -38.7890 LP  0  0  0  0  0  0  0  0  0  0  0  0  # atno 5218 bound_to 1931
  -11.3209  -22.3154  -30.8041 LP  0  0  0  0  0  0  0  0  0  0  0  0  # atno 5224 bound_to 1070
  -12.7822  -22.9512  -30.4477 LP  0  0  0  0  0  0  0  0  0  0  0  0  # atno 5225 bound_to 1070

$$$$
EZ_18b|Lisa_paper2_min|sdf|6|dock10
  -GOLD-  10182017 13D 1   1.00000     0.00000

 60 63  0  0  0  0  0  0  0  0  1 V2000
   -2.8074  -30.2843  -32.9540 C   0  0  0  0  0  0  0  0  0  0  0  0
   -3.2085  -31.6086  -33.1174 C   0  0  0  0  0  0  0  0  0  0  0  0
   -3.6639  -29.2322  -33.2912 C   0  0  0  0  0  0  0  0  0  0  0  0
   -4.4749  -31.9255  -33.6213 C   0  0  0  0  0  0  0  0  0  0  0  0
  -10.8948  -24.9653  -35.1381 C   0  0  0  0  0  0  0  0  0  0  0  0
  -11.6079  -26.9733  -36.2767 C   0  0  0  0  0  0  0  0  0  0  0  0
  -17.2807  -23.8967  -37.9014 C   0  0  0  0  0  0  0  0  0  0  0  0
   -9.7160  -25.6031  -34.7516 C   0  0  0  0  0  0  0  0  0  0  0  0
  -10.4290  -27.6110  -35.8903 C   0  0  0  0  0  0  0  0  0  0  0  0
  -18.3469  -23.8633  -38.8001 C   0  0  0  0  0  0  0  0  0  0  0  0
  -15.8710  -24.8619  -39.6096 C   0  0  0  0  0  0  0  0  0  0  0  0
   -4.9402  -29.5328  -33.7992 C   0  0  0  0  0  0  0  0  0  0  0  0
   -5.3278  -30.8641  -33.9570 C   0  0  0  0  0  0  0  0  0  0  0  0
  -11.8407  -25.6505  -35.9006 C   0  0  0  0  0  0  0  0  0  0  0  0
  -16.0427  -24.3960  -38.3061 C   0  0  0  0  0  0  0  0  0  0  0  0
   -9.4830  -26.9259  -35.1277 C   0  0  0  0  0  0  0  0  0  0  0  0
  -18.1752  -24.3293  -40.1036 C   0  0  0  0  0  0  0  0  0  0  0  0
  -16.9373  -24.8286  -40.5084 C   0  0  0  0  0  0  0  0  0  0  0  0
   -6.9166  -29.4599  -34.5843 C   0  0  0  0  0  0  0  0  0  0  0  0
   -7.4485  -31.8792  -34.8021 C   0  0  0  0  0  0  0  0  0  0  0  0
  -13.8846  -25.3299  -37.3630 C   0  0  0  0  0  0  0  0  0  0  0  0
   -8.3548  -34.5273  -35.6514 C   0  0  0  0  0  0  0  0  0  0  0  0
   -6.7959  -35.3328  -33.8540 C   0  0  0  0  0  0  0  0  0  0  0  0
   -8.6972  -33.8006  -33.2662 C   0  0  0  0  0  0  0  0  0  0  0  0
   -8.2021  -28.9293  -35.0939 C   0  0  0  0  0  0  0  0  0  0  0  0
   -7.6686  -34.1744  -34.3325 C   0  0  0  0  0  0  0  0  0  0  0  0
   -5.9364  -28.6807  -34.1930 N   0  0  0  0  0  0  0  0  0  0  0  0
   -6.6183  -30.8029  -34.4693 N   0  0  0  0  0  0  0  0  0  0  0  0
  -13.0199  -25.0127  -36.2871 N   0  0  0  0  0  0  0  0  0  0  0  0
  -14.9612  -24.4291  -37.3945 N   0  0  0  0  0  0  0  0  0  0  0  0
   -8.5705  -31.7025  -35.2472 O   0  0  0  0  0  0  0  0  0  0  0  0
  -13.7119  -26.2569  -38.1480 O   0  0  0  0  0  0  0  0  0  0  0  0
   -8.3265  -27.5516  -34.7486 O   0  0  0  0  0  0  0  0  0  0  0  0
   -6.8109  -33.0507  -34.5520 O   0  0  0  0  0  0  0  0  0  0  0  0
  -19.5352  -24.2644  -41.1687 Cl  0  0  0  0  0  0  0  0  0  0  0  0
  -16.6631  -25.4221  -42.1089 Cl  0  0  0  0  0  0  0  0  0  0  0  0
   -1.8185  -30.0654  -32.5606 H   0  0  0  0  0  0  0  0  0  0  0  0
   -2.5259  -32.4113  -32.8493 H   0  0  0  0  0  0  0  0  0  0  0  0
   -3.3445  -28.2027  -33.1615 H   0  0  0  0  0  0  0  0  0  0  0  0
   -4.7625  -32.9636  -33.7389 H   0  0  0  0  0  0  0  0  0  0  0  0
  -11.0658  -23.9342  -34.8394 H   0  0  0  0  0  0  0  0  0  0  0  0
  -12.3379  -27.5172  -36.8708 H   0  0  0  0  0  0  0  0  0  0  0  0
  -17.4248  -23.5297  -36.8885 H   0  0  0  0  0  0  0  0  0  0  0  0
   -8.9828  -25.0640  -34.1578 H   0  0  0  0  0  0  0  0  0  0  0  0
  -10.2533  -28.6418  -36.1863 H   0  0  0  0  0  0  0  0  0  0  0  0
  -19.3042  -23.4695  -38.4678 H   0  0  0  0  0  0  0  0  0  0  0  0
  -14.9032  -25.2515  -39.9192 H   0  0  0  0  0  0  0  0  0  0  0  0
   -7.6515  -34.4532  -36.4885 H   0  0  0  0  0  0  0  0  0  0  0  0
   -8.7676  -35.5412  -35.6328 H   0  0  0  0  0  0  0  0  0  0  0  0
   -9.1688  -33.8261  -35.8686 H   0  0  0  0  0  0  0  0  0  0  0  0
   -7.4013  -36.2279  -33.6715 H   0  0  0  0  0  0  0  0  0  0  0  0
   -6.3109  -35.0886  -32.9020 H   0  0  0  0  0  0  0  0  0  0  0  0
   -6.0196  -35.5823  -34.5846 H   0  0  0  0  0  0  0  0  0  0  0  0
   -8.2102  -33.3483  -32.3946 H   0  0  0  0  0  0  0  0  0  0  0  0
   -9.4398  -33.0947  -33.6522 H   0  0  0  0  0  0  0  0  0  0  0  0
   -9.2206  -34.6913  -32.9004 H   0  0  0  0  0  0  0  0  0  0  0  0
   -8.2773  -29.0169  -36.1903 H   0  0  0  0  0  0  0  0  0  0  0  0
   -9.0631  -29.4713  -34.6694 H   0  0  0  0  0  0  0  0  0  0  0  0
  -13.2974  -24.2072  -35.7164 H   0  0  0  0  0  0  0  0  0  0  0  0
  -14.9705  -23.7089  -36.6766 H   0  0  0  0  0  0  0  0  0  0  0  0
  1  2  2  0  0  0  0
  1  3  1  0  0  0  0
  2  4  1  0  0  0  0
  3 12  2  0  0  0  0
  4 13  2  0  0  0  0
  5  8  1  0  0  0  0
  5 14  2  0  0  0  0
  6  9  2  0  0  0  0
  6 14  1  0  0  0  0
  7 10  1  0  0  0  0
  7 15  2  0  0  0  0
  8 16  2  0  0  0  0
  9 16  1  0  0  0  0
 10 17  2  0  0  0  0
 11 15  1  0  0  0  0
 11 18  2  0  0  0  0
 12 13  1  0  0  0  0
 12 27  1  0  0  0  0
 13 28  1  0  0  0  0
 14 29  1  0  0  0  0
 15 30  1  0  0  0  0
 16 33  1  0  0  0  0
 17 18  1  0  0  0  0
 17 35  1  0  0  0  0
 18 36  1  0  0  0  0
 19 25  1  0  0  0  0
 19 27  2  0  0  0  0
 19 28  1  0  0  0  0
 20 28  1  0  0  0  0
 20 31  2  0  0  0  0
 20 34  1  0  0  0  0
 21 29  1  0  0  0  0
 21 30  1  0  0  0  0
 21 32  2  0  0  0  0
 22 26  1  0  0  0  0
 23 26  1  0  0  0  0
 24 26  1  0  0  0  0
 25 33  1  0  0  0  0
 26 34  1  0  0  0  0
  1 37  1  0  0  0  0
  2 38  1  0  0  0  0
  3 39  1  0  0  0  0
  4 40  1  0  0  0  0
  5 41  1  0  0  0  0
  6 42  1  0  0  0  0
  7 43  1  0  0  0  0
  8 44  1  0  0  0  0
  9 45  1  0  0  0  0
 10 46  1  0  0  0  0
 11 47  1  0  0  0  0
 22 48  1  0  0  0  0
 22 49  1  0  0  0  0
 22 50  1  0  0  0  0
 23 51  1  0  0  0  0
 23 52  1  0  0  0  0
 23 53  1  0  0  0  0
 24 54  1  0  0  0  0
 24 55  1  0  0  0  0
 24 56  1  0  0  0  0
 25 57  1  0  0  0  0
 25 58  1  0  0  0  0
 29 59  1  0  0  0  0
 30 60  1  0  0  0  0
M  END
> <Name>
EZ_18b

> <SourceTag>
EZ_18b

> <Activity_FLAP>
100

> <Activity_sEH>
0.63

> <Gold.Version>
5.2

> <Gold.Id.Protein>
6HGV|6HGV_protein|mol2

> <Gold.Goldscore.Fitness>
87.1328

> <Gold.Goldscore.Internal.Vdw>
-16.9904

> <Gold.Goldscore.Internal.Torsion>
-6.0329

> <Gold.Goldscore.External.Vdw>
63.4285

> <Gold.Goldscore.Internal.HBond>
0.0000

> <Gold.Goldscore.External.HBond>
6.0484

> <Gold.Goldscore.Internal.Correction>
-16.8935

> <Gold.Goldscore.Hbonds>
donor molecule, donor type, donor heavy atom, donor atom, acceptor molecule, acceptor atom, score
      P1  H  1247  3847       L1    32  0.05
      L1  H    29    59       P1   853  0.69
      L1  H    30    60       P1   853  0.30

> <Gold.Goldscore.Internal.Vdw.Weighted>
-16.9904

> <Gold.Goldscore.Internal.Torsion.Weighted>
-6.0329

> <Gold.Goldscore.External.Vdw.Weighted>
87.2142

> <Gold.Goldscore.Internal.HBond.Weighted>
0.0000

> <Gold.Goldscore.External.HBond.Weighted>
6.0484

> <Gold.Goldscore.Internal.Correction.Weighted>
-16.8935

> <Gold.Protein.RotatedTorsions>
[ 3781 1176 1175 1172 ] final  -35.81 input   60.00 | X-H torsion
[ 3847 1247 1246 1244 ] final  150.80 input   60.00 | X-H torsion
[ 4507 1931 1930 1928 ] final  145.68 input   60.00 | X-H torsion
[ 3677 1070 1069 1066 ] final -145.18 input   60.00 | X-H torsion
[ 3525  925  924  922 ] final  -10.14 input   59.99 | X-H torsion
[ 4531 1957 1955 1953 ] final  -10.70 input   60.00 | X-H torsion

> <Gold.Protein.ActiveResidues>
 PHE267  PRO268  MET310  ASP335  TRP336  MET339  TYR343  THR360  PRO361  ILE363 
 PRO371  SER374  ILE375  ASN378  PHE381  TYR383  GLN384  PHE387  LEU408  LEU417 
 MET419  LEU428  TYR466  MET469  ASN472  ASP496  VAL498  LEU499  MET503  HIS524 
 TRP525 

> <Gold.Protein.RotatedAtoms>
   -3.6780  -29.5237  -30.3330 H   0  0  0  0  0  0  0  0  0  0  0  0  # atno 3525 bound_to 925 
  -11.2075  -23.2654  -31.3979 H   0  0  0  0  0  0  0  0  0  0  0  0  # atno 3677 bound_to 1070
  -10.5301  -36.9110  -34.0598 H   0  0  0  0  0  0  0  0  0  0  0  0  # atno 3781 bound_to 1176
  -14.3891  -27.8210  -37.9164 H   0  0  0  0  0  0  0  0  0  0  0  0  # atno 3847 bound_to 1247
  -12.5648  -23.7921  -39.7292 H   0  0  0  0  0  0  0  0  0  0  0  0  # atno 4507 bound_to 1931
   -2.7297  -32.3832  -36.7112 H   0  0  0  0  0  0  0  0  0  0  0  0  # atno 4531 bound_to 1957
   -9.2465  -36.3656  -33.2214 LP  0  0  0  0  0  0  0  0  0  0  0  0  # atno 5205 bound_to 1176
  -10.3306  -37.3563  -32.5074 LP  0  0  0  0  0  0  0  0  0  0  0  0  # atno 5206 bound_to 1176
  -15.2720  -28.9443  -37.1374 LP  0  0  0  0  0  0  0  0  0  0  0  0  # atno 5215 bound_to 1247
  -15.9089  -27.4736  -37.4501 LP  0  0  0  0  0  0  0  0  0  0  0  0  # atno 5216 bound_to 1247
  -12.9780  -25.1026  -38.8575 LP  0  0  0  0  0  0  0  0  0  0  0  0  # atno 5217 bound_to 1931
  -13.6555  -24.8449  -40.3208 LP  0  0  0  0  0  0  0  0  0  0  0  0  # atno 5218 bound_to 1931
  -11.9469  -22.1906  -30.4252 LP  0  0  0  0  0  0  0  0  0  0  0  0  # atno 5224 bound_to 1070
  -12.7049  -23.5758  -30.8414 LP  0  0  0  0  0  0  0  0  0  0  0  0  # atno 5225 bound_to 1070

$$$$
EZ_18b|Lisa_paper2_min|sdf|6|dock2
  -GOLD-  10182016583D 1   1.00000     0.00000

 60 63  0  0  0  0  0  0  0  0  1 V2000
   -3.0170  -30.2184  -32.9473 C   0  0  0  0  0  0  0  0  0  0  0  0
   -3.5462  -31.5020  -32.8309 C   0  0  0  0  0  0  0  0  0  0  0  0
   -3.7798  -29.1778  -33.4853 C   0  0  0  0  0  0  0  0  0  0  0  0
   -4.8513  -31.7884  -33.2464 C   0  0  0  0  0  0  0  0  0  0  0  0
  -11.7637  -26.8945  -36.4252 C   0  0  0  0  0  0  0  0  0  0  0  0
  -11.0951  -24.8958  -35.2441 C   0  0  0  0  0  0  0  0  0  0  0  0
  -17.5241  -23.9547  -37.9533 C   0  0  0  0  0  0  0  0  0  0  0  0
  -10.5672  -27.5111  -36.0591 C   0  0  0  0  0  0  0  0  0  0  0  0
   -9.8986  -25.5123  -34.8781 C   0  0  0  0  0  0  0  0  0  0  0  0
  -18.5916  -23.9223  -38.8504 C   0  0  0  0  0  0  0  0  0  0  0  0
  -16.0728  -24.7598  -39.7089 C   0  0  0  0  0  0  0  0  0  0  0  0
   -5.0934  -29.4482  -33.9081 C   0  0  0  0  0  0  0  0  0  0  0  0
   -5.6097  -30.7387  -33.7849 C   0  0  0  0  0  0  0  0  0  0  0  0
  -12.0276  -25.5869  -36.0176 C   0  0  0  0  0  0  0  0  0  0  0  0
  -16.2646  -24.3734  -38.3824 C   0  0  0  0  0  0  0  0  0  0  0  0
   -9.6347  -26.8200  -35.2856 C   0  0  0  0  0  0  0  0  0  0  0  0
  -18.3996  -24.3087  -40.1770 C   0  0  0  0  0  0  0  0  0  0  0  0
  -17.1402  -24.7274  -40.6062 C   0  0  0  0  0  0  0  0  0  0  0  0
   -7.0766  -29.3420  -34.6721 C   0  0  0  0  0  0  0  0  0  0  0  0
   -7.8412  -31.6904  -34.3824 C   0  0  0  0  0  0  0  0  0  0  0  0
  -14.0808  -25.2767  -37.4693 C   0  0  0  0  0  0  0  0  0  0  0  0
   -9.2558  -34.2528  -33.9210 C   0  0  0  0  0  0  0  0  0  0  0  0
   -7.8832  -33.8553  -35.9869 C   0  0  0  0  0  0  0  0  0  0  0  0
   -6.9341  -35.2088  -34.0960 C   0  0  0  0  0  0  0  0  0  0  0  0
   -8.3208  -28.8022  -35.2673 C   0  0  0  0  0  0  0  0  0  0  0  0
   -7.8461  -34.0418  -34.4715 C   0  0  0  0  0  0  0  0  0  0  0  0
   -6.0158  -28.6000  -34.4589 N   0  0  0  0  0  0  0  0  0  0  0  0
   -6.9034  -30.6562  -34.2862 N   0  0  0  0  0  0  0  0  0  0  0  0
  -13.2243  -24.9701  -36.3837 N   0  0  0  0  0  0  0  0  0  0  0  0
  -15.1820  -24.4055  -37.4721 N   0  0  0  0  0  0  0  0  0  0  0  0
   -8.9542  -31.4983  -34.8433 O   0  0  0  0  0  0  0  0  0  0  0  0
  -13.8831  -26.1730  -38.2834 O   0  0  0  0  0  0  0  0  0  0  0  0
   -8.4608  -27.4249  -34.9265 O   0  0  0  0  0  0  0  0  0  0  0  0
   -7.3100  -32.8434  -33.9029 O   0  0  0  0  0  0  0  0  0  0  0  0
  -19.7622  -24.2495  -41.2392 Cl  0  0  0  0  0  0  0  0  0  0  0  0
  -16.8403  -25.2202  -42.2359 Cl  0  0  0  0  0  0  0  0  0  0  0  0
   -2.0005  -30.0226  -32.6171 H   0  0  0  0  0  0  0  0  0  0  0  0
   -2.9349  -32.2966  -32.4101 H   0  0  0  0  0  0  0  0  0  0  0  0
   -3.3608  -28.1801  -33.5733 H   0  0  0  0  0  0  0  0  0  0  0  0
   -5.2392  -32.7951  -33.1452 H   0  0  0  0  0  0  0  0  0  0  0  0
  -12.4834  -27.4425  -37.0281 H   0  0  0  0  0  0  0  0  0  0  0  0
  -11.2899  -23.8763  -34.9209 H   0  0  0  0  0  0  0  0  0  0  0  0
  -17.6841  -23.6501  -36.9222 H   0  0  0  0  0  0  0  0  0  0  0  0
  -10.3674  -28.5300  -36.3796 H   0  0  0  0  0  0  0  0  0  0  0  0
   -9.1760  -24.9688  -34.2754 H   0  0  0  0  0  0  0  0  0  0  0  0
  -19.5658  -23.5919  -38.4988 H   0  0  0  0  0  0  0  0  0  0  0  0
  -15.0882  -25.0867  -40.0375 H   0  0  0  0  0  0  0  0  0  0  0  0
   -9.8905  -33.3848  -34.1321 H   0  0  0  0  0  0  0  0  0  0  0  0
   -9.7280  -35.1419  -34.3515 H   0  0  0  0  0  0  0  0  0  0  0  0
   -9.2372  -34.3643  -32.8308 H   0  0  0  0  0  0  0  0  0  0  0  0
   -8.7592  -33.2687  -36.2864 H   0  0  0  0  0  0  0  0  0  0  0  0
   -7.9696  -34.8215  -36.4969 H   0  0  0  0  0  0  0  0  0  0  0  0
   -6.9847  -33.3487  -36.3537 H   0  0  0  0  0  0  0  0  0  0  0  0
   -7.3573  -36.1610  -34.4361 H   0  0  0  0  0  0  0  0  0  0  0  0
   -5.9366  -35.0981  -34.5336 H   0  0  0  0  0  0  0  0  0  0  0  0
   -6.8302  -35.2878  -33.0078 H   0  0  0  0  0  0  0  0  0  0  0  0
   -8.3206  -28.8859  -36.3665 H   0  0  0  0  0  0  0  0  0  0  0  0
   -9.2121  -29.3403  -34.9051 H   0  0  0  0  0  0  0  0  0  0  0  0
  -13.5236  -24.1911  -35.7876 H   0  0  0  0  0  0  0  0  0  0  0  0
  -15.2107  -23.7091  -36.7317 H   0  0  0  0  0  0  0  0  0  0  0  0
  1  2  2  0  0  0  0
  1  3  1  0  0  0  0
  2  4  1  0  0  0  0
  3 12  2  0  0  0  0
  4 13  2  0  0  0  0
  5  8  1  0  0  0  0
  5 14  2  0  0  0  0
  6  9  2  0  0  0  0
  6 14  1  0  0  0  0
  7 10  1  0  0  0  0
  7 15  2  0  0  0  0
  8 16  2  0  0  0  0
  9 16  1  0  0  0  0
 10 17  2  0  0  0  0
 11 15  1  0  0  0  0
 11 18  2  0  0  0  0
 12 13  1  0  0  0  0
 12 27  1  0  0  0  0
 13 28  1  0  0  0  0
 14 29  1  0  0  0  0
 15 30  1  0  0  0  0
 16 33  1  0  0  0  0
 17 18  1  0  0  0  0
 17 35  1  0  0  0  0
 18 36  1  0  0  0  0
 19 25  1  0  0  0  0
 19 27  2  0  0  0  0
 19 28  1  0  0  0  0
 20 28  1  0  0  0  0
 20 31  2  0  0  0  0
 20 34  1  0  0  0  0
 21 29  1  0  0  0  0
 21 30  1  0  0  0  0
 21 32  2  0  0  0  0
 22 26  1  0  0  0  0
 23 26  1  0  0  0  0
 24 26  1  0  0  0  0
 25 33  1  0  0  0  0
 26 34  1  0  0  0  0
  1 37  1  0  0  0  0
  2 38  1  0  0  0  0
  3 39  1  0  0  0  0
  4 40  1  0  0  0  0
  5 41  1  0  0  0  0
  6 42  1  0  0  0  0
  7 43  1  0  0  0  0
  8 44  1  0  0  0  0
  9 45  1  0  0  0  0
 10 46  1  0  0  0  0
 11 47  1  0  0  0  0
 22 48  1  0  0  0  0
 22 49  1  0  0  0  0
 22 50  1  0  0  0  0
 23 51  1  0  0  0  0
 23 52  1  0  0  0  0
 23 53  1  0  0  0  0
 24 54  1  0  0  0  0
 24 55  1  0  0  0  0
 24 56  1  0  0  0  0
 25 57  1  0  0  0  0
 25 58  1  0  0  0  0
 29 59  1  0  0  0  0
 30 60  1  0  0  0  0
M  END
> <Name>
EZ_18b

> <SourceTag>
EZ_18b

> <Activity_FLAP>
100

> <Activity_sEH>
0.63

> <Gold.Version>
5.2

> <Gold.Id.Protein>
6HGV|6HGV_protein|mol2

> <Gold.Goldscore.Fitness>
84.5072

> <Gold.Goldscore.Internal.Vdw>
-18.9514

> <Gold.Goldscore.Internal.Torsion>
-7.1297

> <Gold.Goldscore.External.Vdw>
63.8087

> <Gold.Goldscore.Internal.HBond>
0.0000

> <Gold.Goldscore.External.HBond>
5.4343

> <Gold.Goldscore.Internal.Correction>
-17.4170

> <Gold.Goldscore.Hbonds>
donor molecule, donor type, donor heavy atom, donor atom, acceptor molecule, acceptor atom, score
      L1  H    29    59       P1   853  0.75
      L1  H    30    60       P1   853  0.16

> <Gold.Goldscore.Internal.Vdw.Weighted>
-18.9514

> <Gold.Goldscore.Internal.Torsion.Weighted>
-7.1297

> <Gold.Goldscore.External.Vdw.Weighted>
87.7370

> <Gold.Goldscore.Internal.HBond.Weighted>
0.0000

> <Gold.Goldscore.External.HBond.Weighted>
5.4343

> <Gold.Goldscore.Internal.Correction.Weighted>
-17.4170

> <Gold.Protein.RotatedTorsions>
[ 3781 1176 1175 1172 ] final  130.55 input   60.00 | X-H torsion
[ 3847 1247 1246 1244 ] final  -79.77 input   60.00 | X-H torsion
[ 4507 1931 1930 1928 ] final  155.05 input   60.00 | X-H torsion
[ 3677 1070 1069 1066 ] final  -90.81 input   60.00 | X-H torsion
[ 3525  925  924  922 ] final  -35.30 input   59.99 | X-H torsion
[ 4531 1957 1955 1953 ] final   13.45 input   60.00 | X-H torsion

> <Gold.Protein.ActiveResidues>
 PHE267  PRO268  MET310  ASP335  TRP336  MET339  TYR343  THR360  PRO361  ILE363 
 PRO371  SER374  ILE375  ASN378  PHE381  TYR383  GLN384  PHE387  LEU408  LEU417 
 MET419  LEU428  TYR466  MET469  ASN472  ASP496  VAL498  LEU499  MET503  HIS524 
 TRP525 

> <Gold.Protein.RotatedAtoms>
   -3.7720  -29.5190  -29.9362 H   0  0  0  0  0  0  0  0  0  0  0  0  # atno 3525 bound_to 925 
  -11.8709  -23.8051  -31.3790 H   0  0  0  0  0  0  0  0  0  0  0  0  # atno 3677 bound_to 1070
   -9.7025  -36.9818  -32.3966 H   0  0  0  0  0  0  0  0  0  0  0  0  # atno 3781 bound_to 1176
  -15.9786  -27.5925  -37.3800 H   0  0  0  0  0  0  0  0  0  0  0  0  # atno 3847 bound_to 1247
  -12.6346  -23.7786  -39.8645 H   0  0  0  0  0  0  0  0  0  0  0  0  # atno 4507 bound_to 1931
   -2.9830  -32.6790  -36.6682 H   0  0  0  0  0  0  0  0  0  0  0  0  # atno 4531 bound_to 1957
  -10.8337  -37.3132  -33.5184 LP  0  0  0  0  0  0  0  0  0  0  0  0  # atno 5205 bound_to 1176
   -9.5769  -36.3373  -33.8855 LP  0  0  0  0  0  0  0  0  0  0  0  0  # atno 5206 bound_to 1176
  -14.4538  -27.6828  -37.9412 LP  0  0  0  0  0  0  0  0  0  0  0  0  # atno 5215 bound_to 1247
  -15.1265  -28.9653  -37.1866 LP  0  0  0  0  0  0  0  0  0  0  0  0  # atno 5216 bound_to 1247
  -12.8765  -24.9961  -38.8123 LP  0  0  0  0  0  0  0  0  0  0  0  0  # atno 5217 bound_to 1931
  -13.6867  -24.9651  -40.2298 LP  0  0  0  0  0  0  0  0  0  0  0  0  # atno 5218 bound_to 1931
  -11.2442  -22.3876  -30.8829 LP  0  0  0  0  0  0  0  0  0  0  0  0  # atno 5224 bound_to 1070
  -12.7394  -22.8352  -30.4027 LP  0  0  0  0  0  0  0  0  0  0  0  0  # atno 5225 bound_to 1070

$$$$
EZ_18b|Lisa_paper2_min|sdf|6|dock7
  -GOLD-  10182017 03D 1   1.00000     0.00000

 60 63  0  0  0  0  0  0  0  0  1 V2000
   -2.4532  -30.3011  -32.7925 C   0  0  0  0  0  0  0  0  0  0  0  0
   -2.8503  -31.6255  -32.9647 C   0  0  0  0  0  0  0  0  0  0  0  0
   -3.3063  -29.2492  -33.1389 C   0  0  0  0  0  0  0  0  0  0  0  0
   -4.1092  -31.9427  -33.4867 C   0  0  0  0  0  0  0  0  0  0  0  0
  -11.0892  -26.8636  -36.3591 C   0  0  0  0  0  0  0  0  0  0  0  0
  -10.4377  -24.9396  -35.0513 C   0  0  0  0  0  0  0  0  0  0  0  0
  -16.6449  -25.1602  -37.4703 C   0  0  0  0  0  0  0  0  0  0  0  0
  -10.0202  -27.5860  -35.8290 C   0  0  0  0  0  0  0  0  0  0  0  0
   -9.3687  -25.6620  -34.5211 C   0  0  0  0  0  0  0  0  0  0  0  0
  -17.9262  -25.2096  -38.0193 C   0  0  0  0  0  0  0  0  0  0  0  0
  -16.0287  -23.4502  -39.0618 C   0  0  0  0  0  0  0  0  0  0  0  0
   -4.5751  -29.5502  -33.6652 C   0  0  0  0  0  0  0  0  0  0  0  0
   -4.9588  -30.8815  -33.8316 C   0  0  0  0  0  0  0  0  0  0  0  0
  -11.2979  -25.5404  -35.9703 C   0  0  0  0  0  0  0  0  0  0  0  0
  -15.6961  -24.2806  -37.9915 C   0  0  0  0  0  0  0  0  0  0  0  0
   -9.1600  -26.9853  -34.9100 C   0  0  0  0  0  0  0  0  0  0  0  0
  -18.2588  -24.3791  -39.0896 C   0  0  0  0  0  0  0  0  0  0  0  0
  -17.3101  -23.4994  -39.6108 C   0  0  0  0  0  0  0  0  0  0  0  0
   -6.5406  -29.4777  -34.4773 C   0  0  0  0  0  0  0  0  0  0  0  0
   -7.0664  -31.8971  -34.7083 C   0  0  0  0  0  0  0  0  0  0  0  0
  -13.6045  -25.3017  -36.9907 C   0  0  0  0  0  0  0  0  0  0  0  0
   -8.2913  -33.8866  -33.1711 C   0  0  0  0  0  0  0  0  0  0  0  0
   -8.0101  -34.4361  -35.6059 C   0  0  0  0  0  0  0  0  0  0  0  0
   -6.4306  -35.4101  -33.9134 C   0  0  0  0  0  0  0  0  0  0  0  0
   -7.8196  -28.9475  -35.0032 C   0  0  0  0  0  0  0  0  0  0  0  0
   -7.2887  -34.2003  -34.2806 C   0  0  0  0  0  0  0  0  0  0  0  0
   -5.5669  -28.6983  -34.0706 N   0  0  0  0  0  0  0  0  0  0  0  0
   -6.2422  -30.8207  -34.3615 N   0  0  0  0  0  0  0  0  0  0  0  0
  -12.3670  -24.8177  -36.5006 N   0  0  0  0  0  0  0  0  0  0  0  0
  -14.3967  -24.2304  -37.4339 N   0  0  0  0  0  0  0  0  0  0  0  0
   -8.1824  -31.7208  -35.1684 O   0  0  0  0  0  0  0  0  0  0  0  0
  -13.9295  -26.4844  -37.0206 O   0  0  0  0  0  0  0  0  0  0  0  0
   -8.1112  -27.6940  -34.3898 O   0  0  0  0  0  0  0  0  0  0  0  0
   -6.4307  -33.0685  -34.4524 O   0  0  0  0  0  0  0  0  0  0  0  0
  -19.8615  -24.4893  -39.7278 Cl  0  0  0  0  0  0  0  0  0  0  0  0
  -17.6612  -22.4475  -40.9371 Cl  0  0  0  0  0  0  0  0  0  0  0  0
   -1.4701  -30.0819  -32.3850 H   0  0  0  0  0  0  0  0  0  0  0  0
   -2.1704  -32.4279  -32.6892 H   0  0  0  0  0  0  0  0  0  0  0  0
   -2.9901  -28.2197  -33.0023 H   0  0  0  0  0  0  0  0  0  0  0  0
   -4.3938  -32.9808  -33.6109 H   0  0  0  0  0  0  0  0  0  0  0  0
  -11.7534  -27.3418  -37.0746 H   0  0  0  0  0  0  0  0  0  0  0  0
  -10.5905  -23.9089  -34.7410 H   0  0  0  0  0  0  0  0  0  0  0  0
  -16.3966  -25.8105  -36.6354 H   0  0  0  0  0  0  0  0  0  0  0  0
   -9.8629  -28.6165  -36.1357 H   0  0  0  0  0  0  0  0  0  0  0  0
   -8.7018  -25.1884  -33.8056 H   0  0  0  0  0  0  0  0  0  0  0  0
  -18.6533  -25.9002  -37.5994 H   0  0  0  0  0  0  0  0  0  0  0  0
  -15.2839  -22.7668  -39.4650 H   0  0  0  0  0  0  0  0  0  0  0  0
   -7.7761  -33.6960  -32.2229 H   0  0  0  0  0  0  0  0  0  0  0  0
   -8.9036  -33.0126  -33.4160 H   0  0  0  0  0  0  0  0  0  0  0  0
   -8.9585  -34.7381  -32.9946 H   0  0  0  0  0  0  0  0  0  0  0  0
   -8.2394  -35.4992  -35.7415 H   0  0  0  0  0  0  0  0  0  0  0  0
   -7.3764  -34.1466  -36.4520 H   0  0  0  0  0  0  0  0  0  0  0  0
   -8.9451  -33.8695  -35.6633 H   0  0  0  0  0  0  0  0  0  0  0  0
   -5.8723  -35.2273  -32.9881 H   0  0  0  0  0  0  0  0  0  0  0  0
   -7.0393  -36.3100  -33.7777 H   0  0  0  0  0  0  0  0  0  0  0  0
   -5.6840  -35.6087  -34.6908 H   0  0  0  0  0  0  0  0  0  0  0  0
   -7.7841  -28.7960  -36.0946 H   0  0  0  0  0  0  0  0  0  0  0  0
   -8.6583  -29.6342  -34.8023 H   0  0  0  0  0  0  0  0  0  0  0  0
  -12.2400  -23.8009  -36.5408 H   0  0  0  0  0  0  0  0  0  0  0  0
  -13.9924  -23.3014  -37.3467 H   0  0  0  0  0  0  0  0  0  0  0  0
  1  2  2  0  0  0  0
  1  3  1  0  0  0  0
  2  4  1  0  0  0  0
  3 12  2  0  0  0  0
  4 13  2  0  0  0  0
  5  8  1  0  0  0  0
  5 14  2  0  0  0  0
  6  9  2  0  0  0  0
  6 14  1  0  0  0  0
  7 10  1  0  0  0  0
  7 15  2  0  0  0  0
  8 16  2  0  0  0  0
  9 16  1  0  0  0  0
 10 17  2  0  0  0  0
 11 15  1  0  0  0  0
 11 18  2  0  0  0  0
 12 13  1  0  0  0  0
 12 27  1  0  0  0  0
 13 28  1  0  0  0  0
 14 29  1  0  0  0  0
 15 30  1  0  0  0  0
 16 33  1  0  0  0  0
 17 18  1  0  0  0  0
 17 35  1  0  0  0  0
 18 36  1  0  0  0  0
 19 25  1  0  0  0  0
 19 27  2  0  0  0  0
 19 28  1  0  0  0  0
 20 28  1  0  0  0  0
 20 31  2  0  0  0  0
 20 34  1  0  0  0  0
 21 29  1  0  0  0  0
 21 30  1  0  0  0  0
 21 32  2  0  0  0  0
 22 26  1  0  0  0  0
 23 26  1  0  0  0  0
 24 26  1  0  0  0  0
 25 33  1  0  0  0  0
 26 34  1  0  0  0  0
  1 37  1  0  0  0  0
  2 38  1  0  0  0  0
  3 39  1  0  0  0  0
  4 40  1  0  0  0  0
  5 41  1  0  0  0  0
  6 42  1  0  0  0  0
  7 43  1  0  0  0  0
  8 44  1  0  0  0  0
  9 45  1  0  0  0  0
 10 46  1  0  0  0  0
 11 47  1  0  0  0  0
 22 48  1  0  0  0  0
 22 49  1  0  0  0  0
 22 50  1  0  0  0  0
 23 51  1  0  0  0  0
 23 52  1  0  0  0  0
 23 53  1  0  0  0  0
 24 54  1  0  0  0  0
 24 55  1  0  0  0  0
 24 56  1  0  0  0  0
 25 57  1  0  0  0  0
 25 58  1  0  0  0  0
 29 59  1  0  0  0  0
 30 60  1  0  0  0  0
M  END
> <Name>
EZ_18b

> <SourceTag>
EZ_18b

> <Activity_FLAP>
100

> <Activity_sEH>
0.63

> <Gold.Version>
5.2

> <Gold.Id.Protein>
6HGV|6HGV_protein|mol2

> <Gold.Goldscore.Fitness>
84.2583

> <Gold.Goldscore.Internal.Vdw>
-16.2178

> <Gold.Goldscore.Internal.Torsion>
-8.0312

> <Gold.Goldscore.External.Vdw>
63.4375

> <Gold.Goldscore.Internal.HBond>
0.0000

> <Gold.Goldscore.External.HBond>
4.3871

> <Gold.Goldscore.Internal.Correction>
-16.8935

> <Gold.Goldscore.Hbonds>
donor molecule, donor type, donor heavy atom, donor atom, acceptor molecule, acceptor atom, score
      P1  H  1247  3847       L1    32  0.16
      L1  H    29    59       P1   854  0.41
      L1  H    30    60       P1   854  0.27

> <Gold.Goldscore.Internal.Vdw.Weighted>
-16.2178

> <Gold.Goldscore.Internal.Torsion.Weighted>
-8.0312

> <Gold.Goldscore.External.Vdw.Weighted>
87.2266

> <Gold.Goldscore.Internal.HBond.Weighted>
0.0000

> <Gold.Goldscore.External.HBond.Weighted>
4.3871

> <Gold.Goldscore.Internal.Correction.Weighted>
-16.8935

> <Gold.Protein.RotatedTorsions>
[ 3781 1176 1175 1172 ] final  121.34 input   60.00 | X-H torsion
[ 3847 1247 1246 1244 ] final -175.10 input   60.00 | X-H torsion
[ 4507 1931 1930 1928 ] final  -79.69 input   60.00 | X-H torsion
[ 3677 1070 1069 1066 ] final -144.62 input   60.00 | X-H torsion
[ 3525  925  924  922 ] final  -18.77 input   59.99 | X-H torsion
[ 4531 1957 1955 1953 ] final   13.13 input   60.00 | X-H torsion

> <Gold.Protein.ActiveResidues>
 PHE267  PRO268  MET310  ASP335  TRP336  MET339  TYR343  THR360  PRO361  ILE363 
 PRO371  SER374  ILE375  ASN378  PHE381  TYR383  GLN384  PHE387  LEU408  LEU417 
 MET419  LEU428  TYR466  MET469  ASN472  ASP496  VAL498  LEU499  MET503  HIS524 
 TRP525 

> <Gold.Protein.RotatedAtoms>
   -3.7282  -29.5138  -30.2016 H   0  0  0  0  0  0  0  0  0  0  0  0  # atno 3525 bound_to 925 
  -11.2118  -23.2731  -31.4002 H   0  0  0  0  0  0  0  0  0  0  0  0  # atno 3677 bound_to 1070
   -9.8222  -37.0701  -32.3741 H   0  0  0  0  0  0  0  0  0  0  0  0  # atno 3781 bound_to 1176
  -14.7313  -27.3928  -37.9459 H   0  0  0  0  0  0  0  0  0  0  0  0  # atno 3847 bound_to 1247
  -13.6907  -25.0263  -40.1689 H   0  0  0  0  0  0  0  0  0  0  0  0  # atno 4507 bound_to 1931
   -2.9805  -32.6744  -36.6686 H   0  0  0  0  0  0  0  0  0  0  0  0  # atno 4531 bound_to 1957
  -10.8119  -37.2481  -33.6534 LP  0  0  0  0  0  0  0  0  0  0  0  0  # atno 5205 bound_to 1176
   -9.4782  -36.3135  -33.7731 LP  0  0  0  0  0  0  0  0  0  0  0  0  # atno 5206 bound_to 1176
  -14.7636  -28.9072  -37.3512 LP  0  0  0  0  0  0  0  0  0  0  0  0  # atno 5215 bound_to 1247
  -16.0728  -27.9420  -37.2066 LP  0  0  0  0  0  0  0  0  0  0  0  0  # atno 5216 bound_to 1247
  -12.6780  -23.7735  -39.9392 LP  0  0  0  0  0  0  0  0  0  0  0  0  # atno 5217 bound_to 1931
  -12.8216  -24.9312  -38.7965 LP  0  0  0  0  0  0  0  0  0  0  0  0  # atno 5218 bound_to 1931
  -11.9385  -22.1888  -30.4284 LP  0  0  0  0  0  0  0  0  0  0  0  0  # atno 5224 bound_to 1070
  -12.7090  -23.5697  -30.8359 LP  0  0  0  0  0  0  0  0  0  0  0  0  # atno 5225 bound_to 1070

$$$$
EZ_18b|Lisa_paper2_min|sdf|6|dock5
  -GOLD-  10182016593D 1   1.00000     0.00000

 60 63  0  0  0  0  0  0  0  0  1 V2000
   -3.5036  -31.0872  -34.0698 C   0  0  0  0  0  0  0  0  0  0  0  0
   -4.3719  -32.1351  -34.3685 C   0  0  0  0  0  0  0  0  0  0  0  0
   -3.9717  -29.7723  -33.9919 C   0  0  0  0  0  0  0  0  0  0  0  0
   -5.7330  -31.9055  -34.5984 C   0  0  0  0  0  0  0  0  0  0  0  0
  -12.1101  -26.6235  -37.2540 C   0  0  0  0  0  0  0  0  0  0  0  0
  -11.5908  -25.1937  -35.3771 C   0  0  0  0  0  0  0  0  0  0  0  0
  -18.1287  -23.8571  -37.4962 C   0  0  0  0  0  0  0  0  0  0  0  0
  -10.8988  -27.2928  -37.0792 C   0  0  0  0  0  0  0  0  0  0  0  0
  -10.3795  -25.8629  -35.2023 C   0  0  0  0  0  0  0  0  0  0  0  0
  -19.2994  -23.7425  -38.2459 C   0  0  0  0  0  0  0  0  0  0  0  0
  -16.8694  -24.2439  -39.5213 C   0  0  0  0  0  0  0  0  0  0  0  0
   -5.3367  -29.5236  -34.2204 C   0  0  0  0  0  0  0  0  0  0  0  0
   -6.1942  -30.5835  -34.5183 C   0  0  0  0  0  0  0  0  0  0  0  0
  -12.4560  -25.5740  -36.4029 C   0  0  0  0  0  0  0  0  0  0  0  0
  -16.9137  -24.1078  -38.1338 C   0  0  0  0  0  0  0  0  0  0  0  0
  -10.0335  -26.9126  -36.0534 C   0  0  0  0  0  0  0  0  0  0  0  0
  -19.2549  -23.8786  -39.6335 C   0  0  0  0  0  0  0  0  0  0  0  0
  -18.0400  -24.1293  -40.2712 C   0  0  0  0  0  0  0  0  0  0  0  0
   -7.2581  -28.6455  -34.4751 C   0  0  0  0  0  0  0  0  0  0  0  0
   -8.6465  -30.6425  -34.9926 C   0  0  0  0  0  0  0  0  0  0  0  0
  -14.6643  -25.1224  -37.5599 C   0  0  0  0  0  0  0  0  0  0  0  0
  -10.6249  -32.4758  -35.9795 C   0  0  0  0  0  0  0  0  0  0  0  0
   -9.1419  -34.2539  -35.0057 C   0  0  0  0  0  0  0  0  0  0  0  0
  -10.1400  -32.5005  -33.5099 C   0  0  0  0  0  0  0  0  0  0  0  0
   -8.3354  -27.6319  -34.5519 C   0  0  0  0  0  0  0  0  0  0  0  0
   -9.5885  -32.7970  -34.9037 C   0  0  0  0  0  0  0  0  0  0  0  0
   -6.0140  -28.3343  -34.1988 N   0  0  0  0  0  0  0  0  0  0  0  0
   -7.4440  -29.9978  -34.6818 N   0  0  0  0  0  0  0  0  0  0  0  0
  -13.6675  -24.9044  -36.5776 N   0  0  0  0  0  0  0  0  0  0  0  0
  -15.7265  -24.2234  -37.3730 N   0  0  0  0  0  0  0  0  0  0  0  0
   -9.6890  -30.0202  -35.1120 O   0  0  0  0  0  0  0  0  0  0  0  0
  -14.6018  -25.9735  -38.4414 O   0  0  0  0  0  0  0  0  0  0  0  0
   -8.8451  -27.5691  -35.8820 O   0  0  0  0  0  0  0  0  0  0  0  0
   -8.4367  -31.9770  -35.1220 O   0  0  0  0  0  0  0  0  0  0  0  0
  -20.7396  -23.7291  -40.5062 Cl  0  0  0  0  0  0  0  0  0  0  0  0
  -17.9211  -24.3098  -41.9865 Cl  0  0  0  0  0  0  0  0  0  0  0  0
   -2.4509  -31.2927  -33.8955 H   0  0  0  0  0  0  0  0  0  0  0  0
   -3.9862  -33.1501  -34.4246 H   0  0  0  0  0  0  0  0  0  0  0  0
   -3.2892  -28.9608  -33.7590 H   0  0  0  0  0  0  0  0  0  0  0  0
   -6.3873  -32.7378  -34.8291 H   0  0  0  0  0  0  0  0  0  0  0  0
  -12.7768  -26.9284  -38.0566 H   0  0  0  0  0  0  0  0  0  0  0  0
  -11.8499  -24.3771  -34.7078 H   0  0  0  0  0  0  0  0  0  0  0  0
  -18.1742  -23.7479  -36.4157 H   0  0  0  0  0  0  0  0  0  0  0  0
  -10.6349  -28.1097  -37.7454 H   0  0  0  0  0  0  0  0  0  0  0  0
   -9.7095  -25.5620  -34.4014 H   0  0  0  0  0  0  0  0  0  0  0  0
  -20.2371  -23.5456  -37.7324 H   0  0  0  0  0  0  0  0  0  0  0  0
  -15.9187  -24.4406  -40.0131 H   0  0  0  0  0  0  0  0  0  0  0  0
  -11.3406  -33.2983  -36.0890 H   0  0  0  0  0  0  0  0  0  0  0  0
  -11.1795  -31.5612  -35.7452 H   0  0  0  0  0  0  0  0  0  0  0  0
  -10.1469  -32.3496  -36.9578 H   0  0  0  0  0  0  0  0  0  0  0  0
   -8.7854  -34.4829  -36.0165 H   0  0  0  0  0  0  0  0  0  0  0  0
   -9.9799  -34.9334  -34.8126 H   0  0  0  0  0  0  0  0  0  0  0  0
   -8.3403  -34.4814  -34.2955 H   0  0  0  0  0  0  0  0  0  0  0  0
  -11.0268  -33.1101  -33.3024 H   0  0  0  0  0  0  0  0  0  0  0  0
   -9.3955  -32.6971  -32.7315 H   0  0  0  0  0  0  0  0  0  0  0  0
  -10.4583  -31.4547  -33.4311 H   0  0  0  0  0  0  0  0  0  0  0  0
   -9.1720  -27.8689  -33.8742 H   0  0  0  0  0  0  0  0  0  0  0  0
   -7.9716  -26.6293  -34.2733 H   0  0  0  0  0  0  0  0  0  0  0  0
  -13.8622  -24.1547  -35.9055 H   0  0  0  0  0  0  0  0  0  0  0  0
  -15.6375  -23.5719  -36.5972 H   0  0  0  0  0  0  0  0  0  0  0  0
  1  2  2  0  0  0  0
  1  3  1  0  0  0  0
  2  4  1  0  0  0  0
  3 12  2  0  0  0  0
  4 13  2  0  0  0  0
  5  8  1  0  0  0  0
  5 14  2  0  0  0  0
  6  9  2  0  0  0  0
  6 14  1  0  0  0  0
  7 10  1  0  0  0  0
  7 15  2  0  0  0  0
  8 16  2  0  0  0  0
  9 16  1  0  0  0  0
 10 17  2  0  0  0  0
 11 15  1  0  0  0  0
 11 18  2  0  0  0  0
 12 13  1  0  0  0  0
 12 27  1  0  0  0  0
 13 28  1  0  0  0  0
 14 29  1  0  0  0  0
 15 30  1  0  0  0  0
 16 33  1  0  0  0  0
 17 18  1  0  0  0  0
 17 35  1  0  0  0  0
 18 36  1  0  0  0  0
 19 25  1  0  0  0  0
 19 27  2  0  0  0  0
 19 28  1  0  0  0  0
 20 28  1  0  0  0  0
 20 31  2  0  0  0  0
 20 34  1  0  0  0  0
 21 29  1  0  0  0  0
 21 30  1  0  0  0  0
 21 32  2  0  0  0  0
 22 26  1  0  0  0  0
 23 26  1  0  0  0  0
 24 26  1  0  0  0  0
 25 33  1  0  0  0  0
 26 34  1  0  0  0  0
  1 37  1  0  0  0  0
  2 38  1  0  0  0  0
  3 39  1  0  0  0  0
  4 40  1  0  0  0  0
  5 41  1  0  0  0  0
  6 42  1  0  0  0  0
  7 43  1  0  0  0  0
  8 44  1  0  0  0  0
  9 45  1  0  0  0  0
 10 46  1  0  0  0  0
 11 47  1  0  0  0  0
 22 48  1  0  0  0  0
 22 49  1  0  0  0  0
 22 50  1  0  0  0  0
 23 51  1  0  0  0  0
 23 52  1  0  0  0  0
 23 53  1  0  0  0  0
 24 54  1  0  0  0  0
 24 55  1  0  0  0  0
 24 56  1  0  0  0  0
 25 57  1  0  0  0  0
 25 58  1  0  0  0  0
 29 59  1  0  0  0  0
 30 60  1  0  0  0  0
M  END
> <Name>
EZ_18b

> <SourceTag>
EZ_18b

> <Activity_FLAP>
100

> <Activity_sEH>
0.63

> <Gold.Version>
5.2

> <Gold.Id.Protein>
6HGV|6HGV_protein|mol2

> <Gold.Goldscore.Fitness>
83.4799

> <Gold.Goldscore.Internal.Vdw>
-13.8729

> <Gold.Goldscore.Internal.Torsion>
-7.0132

> <Gold.Goldscore.External.Vdw>
59.9303

> <Gold.Goldscore.Internal.HBond>
0.0000

> <Gold.Goldscore.External.HBond>
5.0683

> <Gold.Goldscore.Internal.Correction>
-16.8935

> <Gold.Goldscore.Hbonds>
donor molecule, donor type, donor heavy atom, donor atom, acceptor molecule, acceptor atom, score
      P1  H  1256  3854       L1    31  0.09
      L1  H    29    59       P1   853  0.75
      L1  H    30    60       P1   853  0.06

> <Gold.Goldscore.Internal.Vdw.Weighted>
-13.8729

> <Gold.Goldscore.Internal.Torsion.Weighted>
-7.0132

> <Gold.Goldscore.External.Vdw.Weighted>
82.4042

> <Gold.Goldscore.Internal.HBond.Weighted>
0.0000

> <Gold.Goldscore.External.HBond.Weighted>
5.0683

> <Gold.Goldscore.Internal.Correction.Weighted>
-16.8935

> <Gold.Protein.RotatedTorsions>
[ 3781 1176 1175 1172 ] final  152.25 input   60.00 | X-H torsion
[ 3847 1247 1246 1244 ] final  -45.01 input   60.00 | X-H torsion
[ 4507 1931 1930 1928 ] final   94.36 input   60.00 | X-H torsion
[ 3677 1070 1069 1066 ] final  -95.74 input   60.00 | X-H torsion
[ 3525  925  924  922 ] final   10.06 input   59.99 | X-H torsion
[ 4531 1957 1955 1953 ] final   -6.38 input   60.00 | X-H torsion

> <Gold.Protein.ActiveResidues>
 PHE267  PRO268  MET310  ASP335  TRP336  MET339  TYR343  THR360  PRO361  ILE363 
 PRO371  SER374  ILE375  ASN378  PHE381  TYR383  GLN384  PHE387  LEU408  LEU417 
 MET419  LEU428  TYR466  MET469  ASN472  ASP496  VAL498  LEU499  MET503  HIS524 
 TRP525 

> <Gold.Protein.RotatedAtoms>
   -3.4958  -29.5786  -30.6006 H   0  0  0  0  0  0  0  0  0  0  0  0  # atno 3525 bound_to 925 
  -11.7975  -23.7801  -31.4009 H   0  0  0  0  0  0  0  0  0  0  0  0  # atno 3677 bound_to 1070
   -9.4597  -36.7676  -32.5359 H   0  0  0  0  0  0  0  0  0  0  0  0  # atno 3781 bound_to 1176
  -16.0575  -28.0986  -37.1554 H   0  0  0  0  0  0  0  0  0  0  0  0  # atno 3847 bound_to 1247
  -12.4487  -24.2025  -39.0397 H   0  0  0  0  0  0  0  0  0  0  0  0  # atno 4507 bound_to 1931
   -2.7837  -32.4278  -36.7017 H   0  0  0  0  0  0  0  0  0  0  0  0  # atno 4531 bound_to 1957
  -10.8038  -37.4197  -33.1811 LP  0  0  0  0  0  0  0  0  0  0  0  0  # atno 5205 bound_to 1176
   -9.8512  -36.4466  -34.0824 LP  0  0  0  0  0  0  0  0  0  0  0  0  # atno 5206 bound_to 1176
  -14.8669  -27.3002  -37.9254 LP  0  0  0  0  0  0  0  0  0  0  0  0  # atno 5215 bound_to 1247
  -14.6339  -28.8382  -37.4285 LP  0  0  0  0  0  0  0  0  0  0  0  0  # atno 5216 bound_to 1247
  -13.5032  -25.3833  -39.4161 LP  0  0  0  0  0  0  0  0  0  0  0  0  # atno 5217 bound_to 1931
  -13.2473  -24.1510  -40.4566 LP  0  0  0  0  0  0  0  0  0  0  0  0  # atno 5218 bound_to 1931
  -11.2899  -22.3416  -30.8342 LP  0  0  0  0  0  0  0  0  0  0  0  0  # atno 5224 bound_to 1070
  -12.7677  -22.9065  -30.4294 LP  0  0  0  0  0  0  0  0  0  0  0  0  # atno 5225 bound_to 1070

$$$$
EZ_18b|Lisa_paper2_min|sdf|6|dock8
  -GOLD-  10182017 03D 1   1.00000     0.00000

 60 63  0  0  0  0  0  0  0  0  1 V2000
   -3.4898  -31.7119  -32.7929 C   0  0  0  0  0  0  0  0  0  0  0  0
   -4.2574  -31.9658  -31.6581 C   0  0  0  0  0  0  0  0  0  0  0  0
   -4.0358  -31.0350  -33.8873 C   0  0  0  0  0  0  0  0  0  0  0  0
   -5.5920  -31.5529  -31.5785 C   0  0  0  0  0  0  0  0  0  0  0  0
  -11.4132  -26.7721  -36.4615 C   0  0  0  0  0  0  0  0  0  0  0  0
  -10.8683  -24.9913  -34.9225 C   0  0  0  0  0  0  0  0  0  0  0  0
  -16.1447  -22.9530  -39.1171 C   0  0  0  0  0  0  0  0  0  0  0  0
  -10.4319  -27.5750  -35.8800 C   0  0  0  0  0  0  0  0  0  0  0  0
   -9.8870  -25.7942  -34.3409 C   0  0  0  0  0  0  0  0  0  0  0  0
  -17.4256  -22.8917  -39.6659 C   0  0  0  0  0  0  0  0  0  0  0  0
  -16.8676  -24.7107  -37.6256 C   0  0  0  0  0  0  0  0  0  0  0  0
   -5.3758  -30.6132  -33.8243 C   0  0  0  0  0  0  0  0  0  0  0  0
   -6.1319  -30.8745  -32.6809 C   0  0  0  0  0  0  0  0  0  0  0  0
  -11.6312  -25.4802  -35.9827 C   0  0  0  0  0  0  0  0  0  0  0  0
  -15.8656  -23.8625  -38.0970 C   0  0  0  0  0  0  0  0  0  0  0  0
   -9.6689  -27.0861  -34.8197 C   0  0  0  0  0  0  0  0  0  0  0  0
  -18.4275  -23.7400  -39.1945 C   0  0  0  0  0  0  0  0  0  0  0  0
  -18.1485  -24.6495  -38.1743 C   0  0  0  0  0  0  0  0  0  0  0  0
   -7.2991  -29.7909  -34.2149 C   0  0  0  0  0  0  0  0  0  0  0  0
   -8.5033  -30.3352  -32.1084 C   0  0  0  0  0  0  0  0  0  0  0  0
  -13.9005  -25.0472  -37.0228 C   0  0  0  0  0  0  0  0  0  0  0  0
  -10.8286  -29.1903  -30.7584 C   0  0  0  0  0  0  0  0  0  0  0  0
  -11.8751  -29.3246  -33.0380 C   0  0  0  0  0  0  0  0  0  0  0  0
  -11.0382  -31.4127  -31.9210 C   0  0  0  0  0  0  0  0  0  0  0  0
   -8.4142  -29.1045  -34.9070 C   0  0  0  0  0  0  0  0  0  0  0  0
  -10.8180  -29.9120  -32.1052 C   0  0  0  0  0  0  0  0  0  0  0  0
   -6.1158  -29.9429  -34.7606 N   0  0  0  0  0  0  0  0  0  0  0  0
   -7.3837  -30.3331  -32.9480 N   0  0  0  0  0  0  0  0  0  0  0  0
  -12.6126  -24.6770  -36.5644 N   0  0  0  0  0  0  0  0  0  0  0  0
  -14.5660  -23.9247  -37.5411 N   0  0  0  0  0  0  0  0  0  0  0  0
   -8.4667  -30.8465  -31.0014 O   0  0  0  0  0  0  0  0  0  0  0  0
  -14.3603  -26.1836  -36.9715 O   0  0  0  0  0  0  0  0  0  0  0  0
   -8.7062  -27.8738  -34.2491 O   0  0  0  0  0  0  0  0  0  0  0  0
   -9.5417  -29.7108  -32.7194 O   0  0  0  0  0  0  0  0  0  0  0  0
  -19.9948  -23.6139  -39.9128 Cl  0  0  0  0  0  0  0  0  0  0  0  0
  -19.3480  -25.7248  -37.5467 Cl  0  0  0  0  0  0  0  0  0  0  0  0
   -2.4556  -32.0433  -32.8291 H   0  0  0  0  0  0  0  0  0  0  0  0
   -3.8125  -32.4945  -30.8186 H   0  0  0  0  0  0  0  0  0  0  0  0
   -3.4319  -30.8410  -34.7684 H   0  0  0  0  0  0  0  0  0  0  0  0
   -6.1675  -31.7628  -30.6847 H   0  0  0  0  0  0  0  0  0  0  0  0
  -12.0020  -27.1634  -37.2873 H   0  0  0  0  0  0  0  0  0  0  0  0
  -11.0293  -23.9861  -34.5411 H   0  0  0  0  0  0  0  0  0  0  0  0
  -15.3708  -22.2885  -39.4928 H   0  0  0  0  0  0  0  0  0  0  0  0
  -10.2668  -28.5805  -36.2573 H   0  0  0  0  0  0  0  0  0  0  0  0
   -9.2957  -25.4077  -33.5151 H   0  0  0  0  0  0  0  0  0  0  0  0
  -17.6247  -22.1778  -40.4612 H   0  0  0  0  0  0  0  0  0  0  0  0
  -16.6442  -25.4173  -36.8287 H   0  0  0  0  0  0  0  0  0  0  0  0
  -11.8336  -29.1951  -30.3217 H   0  0  0  0  0  0  0  0  0  0  0  0
  -10.1380  -29.6543  -30.0467 H   0  0  0  0  0  0  0  0  0  0  0  0
  -10.5480  -28.1374  -30.8767 H   0  0  0  0  0  0  0  0  0  0  0  0
  -12.8821  -29.4830  -32.6353 H   0  0  0  0  0  0  0  0  0  0  0  0
  -11.8519  -29.8202  -34.0152 H   0  0  0  0  0  0  0  0  0  0  0  0
  -11.7276  -28.2506  -33.1903 H   0  0  0  0  0  0  0  0  0  0  0  0
  -10.6672  -31.9718  -32.7877 H   0  0  0  0  0  0  0  0  0  0  0  0
  -10.5321  -31.7876  -31.0254 H   0  0  0  0  0  0  0  0  0  0  0  0
  -12.1067  -31.6427  -31.8391 H   0  0  0  0  0  0  0  0  0  0  0  0
   -8.1705  -28.8824  -35.9590 H   0  0  0  0  0  0  0  0  0  0  0  0
   -9.3294  -29.7190  -34.9131 H   0  0  0  0  0  0  0  0  0  0  0  0
  -12.3691  -23.6870  -36.6747 H   0  0  0  0  0  0  0  0  0  0  0  0
  -14.0565  -23.0449  -37.5175 H   0  0  0  0  0  0  0  0  0  0  0  0
  1  2  2  0  0  0  0
  1  3  1  0  0  0  0
  2  4  1  0  0  0  0
  3 12  2  0  0  0  0
  4 13  2  0  0  0  0
  5  8  1  0  0  0  0
  5 14  2  0  0  0  0
  6  9  2  0  0  0  0
  6 14  1  0  0  0  0
  7 10  1  0  0  0  0
  7 15  2  0  0  0  0
  8 16  2  0  0  0  0
  9 16  1  0  0  0  0
 10 17  2  0  0  0  0
 11 15  1  0  0  0  0
 11 18  2  0  0  0  0
 12 13  1  0  0  0  0
 12 27  1  0  0  0  0
 13 28  1  0  0  0  0
 14 29  1  0  0  0  0
 15 30  1  0  0  0  0
 16 33  1  0  0  0  0
 17 18  1  0  0  0  0
 17 35  1  0  0  0  0
 18 36  1  0  0  0  0
 19 25  1  0  0  0  0
 19 27  2  0  0  0  0
 19 28  1  0  0  0  0
 20 28  1  0  0  0  0
 20 31  2  0  0  0  0
 20 34  1  0  0  0  0
 21 29  1  0  0  0  0
 21 30  1  0  0  0  0
 21 32  2  0  0  0  0
 22 26  1  0  0  0  0
 23 26  1  0  0  0  0
 24 26  1  0  0  0  0
 25 33  1  0  0  0  0
 26 34  1  0  0  0  0
  1 37  1  0  0  0  0
  2 38  1  0  0  0  0
  3 39  1  0  0  0  0
  4 40  1  0  0  0  0
  5 41  1  0  0  0  0
  6 42  1  0  0  0  0
  7 43  1  0  0  0  0
  8 44  1  0  0  0  0
  9 45  1  0  0  0  0
 10 46  1  0  0  0  0
 11 47  1  0  0  0  0
 22 48  1  0  0  0  0
 22 49  1  0  0  0  0
 22 50  1  0  0  0  0
 23 51  1  0  0  0  0
 23 52  1  0  0  0  0
 23 53  1  0  0  0  0
 24 54  1  0  0  0  0
 24 55  1  0  0  0  0
 24 56  1  0  0  0  0
 25 57  1  0  0  0  0
 25 58  1  0  0  0  0
 29 59  1  0  0  0  0
 30 60  1  0  0  0  0
M  END
> <Name>
EZ_18b

> <SourceTag>
EZ_18b

> <Activity_FLAP>
100

> <Activity_sEH>
0.63

> <Gold.Version>
5.2

> <Gold.Id.Protein>
6HGV|6HGV_protein|mol2

> <Gold.Goldscore.Fitness>
81.8322

> <Gold.Goldscore.Internal.Vdw>
-13.7764

> <Gold.Goldscore.Internal.Torsion>
-6.8641

> <Gold.Goldscore.External.Vdw>
60.0827

> <Gold.Goldscore.Internal.HBond>
0.0000

> <Gold.Goldscore.External.HBond>
2.9655

> <Gold.Goldscore.Internal.Correction>
-16.8935

> <Gold.Goldscore.Hbonds>
donor molecule, donor type, donor heavy atom, donor atom, acceptor molecule, acceptor atom, score
      P1  H  1247  3847       L1    32  0.18
      L1  H    29    59       P1   854  0.28
      L1  H    30    60       P1   854  0.15

> <Gold.Goldscore.Internal.Vdw.Weighted>
-13.7764

> <Gold.Goldscore.Internal.Torsion.Weighted>
-6.8641

> <Gold.Goldscore.External.Vdw.Weighted>
82.6137

> <Gold.Goldscore.Internal.HBond.Weighted>
0.0000

> <Gold.Goldscore.External.HBond.Weighted>
2.9655

> <Gold.Goldscore.Internal.Correction.Weighted>
-16.8935

> <Gold.Protein.RotatedTorsions>
[ 3781 1176 1175 1172 ] final   77.72 input   60.00 | X-H torsion
[ 3847 1247 1246 1244 ] final -164.46 input   60.00 | X-H torsion
[ 4507 1931 1930 1928 ] final  -62.17 input   60.00 | X-H torsion
[ 3677 1070 1069 1066 ] final -116.04 input   60.00 | X-H torsion
[ 3525  925  924  922 ] final  -12.77 input   59.99 | X-H torsion
[ 4531 1957 1955 1953 ] final    7.29 input   60.00 | X-H torsion

> <Gold.Protein.ActiveResidues>
 PHE267  PRO268  MET310  ASP335  TRP336  MET339  TYR343  THR360  PRO361  ILE363 
 PRO371  SER374  ILE375  ASN378  PHE381  TYR383  GLN384  PHE387  LEU408  LEU417 
 MET419  LEU428  TYR466  MET469  ASN472  ASP496  VAL498  LEU499  MET503  HIS524 
 TRP525 

> <Gold.Protein.RotatedAtoms>
   -3.6952  -29.5198  -30.2939 H   0  0  0  0  0  0  0  0  0  0  0  0  # atno 3525 bound_to 925 
  -11.5130  -23.6199  -31.4496 H   0  0  0  0  0  0  0  0  0  0  0  0  # atno 3677 bound_to 1070
  -10.4087  -37.3870  -32.5728 H   0  0  0  0  0  0  0  0  0  0  0  0  # atno 3781 bound_to 1176
  -14.8778  -27.3024  -37.9230 H   0  0  0  0  0  0  0  0  0  0  0  0  # atno 3847 bound_to 1247
  -13.6864  -25.2054  -39.9469 H   0  0  0  0  0  0  0  0  0  0  0  0  # atno 4507 bound_to 1931
   -2.9304  -32.5936  -36.6767 H   0  0  0  0  0  0  0  0  0  0  0  0  # atno 4531 bound_to 1957
  -10.4611  -36.8446  -34.1061 LP  0  0  0  0  0  0  0  0  0  0  0  0  # atno 5205 bound_to 1176
   -9.2382  -36.3979  -33.1203 LP  0  0  0  0  0  0  0  0  0  0  0  0  # atno 5206 bound_to 1176
  -14.6273  -28.8337  -37.4328 LP  0  0  0  0  0  0  0  0  0  0  0  0  # atno 5215 bound_to 1247
  -16.0615  -28.1065  -37.1481 LP  0  0  0  0  0  0  0  0  0  0  0  0  # atno 5216 bound_to 1247
  -12.8482  -23.8277  -40.1642 LP  0  0  0  0  0  0  0  0  0  0  0  0  # atno 5217 bound_to 1931
  -12.6558  -24.6966  -38.7950 LP  0  0  0  0  0  0  0  0  0  0  0  0  # atno 5218 bound_to 1931
  -11.5255  -22.2073  -30.6419 LP  0  0  0  0  0  0  0  0  0  0  0  0  # atno 5224 bound_to 1070
  -12.8186  -23.2020  -30.5726 LP  0  0  0  0  0  0  0  0  0  0  0  0  # atno 5225 bound_to 1070

$$$$
EZ_19|Lisa_paper2_min|sdf|7|dock7
  -GOLD-  10182017 23D 1   1.00000     0.00000

 45 48  0  0  0  0  0  0  0  0  1 V2000
   -2.9975  -30.9304  -33.4773 C   0  0  0  0  0  0  0  0  0  0  0  0
   -3.3094  -32.0962  -34.1805 C   0  0  0  0  0  0  0  0  0  0  0  0
   -3.8823  -29.8450  -33.4513 C   0  0  0  0  0  0  0  0  0  0  0  0
   -4.5134  -32.2209  -34.8816 C   0  0  0  0  0  0  0  0  0  0  0  0
  -11.6082  -26.8559  -36.5539 C   0  0  0  0  0  0  0  0  0  0  0  0
  -10.7359  -25.0096  -35.2624 C   0  0  0  0  0  0  0  0  0  0  0  0
  -16.2982  -22.9154  -39.0379 C   0  0  0  0  0  0  0  0  0  0  0  0
  -10.5979  -27.6800  -36.0583 C   0  0  0  0  0  0  0  0  0  0  0  0
   -9.7257  -25.8338  -34.7668 C   0  0  0  0  0  0  0  0  0  0  0  0
  -17.5951  -22.8385  -39.5455 C   0  0  0  0  0  0  0  0  0  0  0  0
  -16.9905  -24.6758  -37.5351 C   0  0  0  0  0  0  0  0  0  0  0  0
   -5.0964  -29.9528  -34.1503 C   0  0  0  0  0  0  0  0  0  0  0  0
   -5.3792  -31.1274  -34.8418 C   0  0  0  0  0  0  0  0  0  0  0  0
  -11.6772  -25.5206  -36.1560 C   0  0  0  0  0  0  0  0  0  0  0  0
  -15.9959  -23.8341  -38.0327 C   0  0  0  0  0  0  0  0  0  0  0  0
   -9.6566  -27.1690  -35.1646 C   0  0  0  0  0  0  0  0  0  0  0  0
  -18.5898  -23.6804  -39.0479 C   0  0  0  0  0  0  0  0  0  0  0  0
  -18.2876  -24.5991  -38.0426 C   0  0  0  0  0  0  0  0  0  0  0  0
   -7.0151  -29.6509  -35.0374 C   0  0  0  0  0  0  0  0  0  0  0  0
  -13.9820  -25.0562  -37.1000 C   0  0  0  0  0  0  0  0  0  0  0  0
   -8.3122  -29.1054  -35.4790 C   0  0  0  0  0  0  0  0  0  0  0  0
   -6.1241  -29.0475  -34.2832 N   0  0  0  0  0  0  0  0  0  0  0  0
   -6.6123  -30.9062  -35.3994 N   0  0  0  0  0  0  0  0  0  0  0  0
  -12.6877  -24.6962  -36.6518 N   0  0  0  0  0  0  0  0  0  0  0  0
  -14.6800  -23.9120  -37.5185 N   0  0  0  0  0  0  0  0  0  0  0  0
  -14.4217  -26.2014  -37.1173 O   0  0  0  0  0  0  0  0  0  0  0  0
   -8.6660  -27.9770  -34.6787 O   0  0  0  0  0  0  0  0  0  0  0  0
  -20.1777  -23.5348  -39.7154 Cl  0  0  0  0  0  0  0  0  0  0  0  0
  -19.4769  -25.6669  -37.3840 Cl  0  0  0  0  0  0  0  0  0  0  0  0
   -2.0539  -30.8638  -32.9415 H   0  0  0  0  0  0  0  0  0  0  0  0
   -2.6028  -32.9226  -34.1845 H   0  0  0  0  0  0  0  0  0  0  0  0
   -3.6306  -28.9441  -32.9011 H   0  0  0  0  0  0  0  0  0  0  0  0
   -4.7576  -33.1253  -35.4270 H   0  0  0  0  0  0  0  0  0  0  0  0
  -12.3365  -27.2646  -37.2497 H   0  0  0  0  0  0  0  0  0  0  0  0
  -10.7798  -23.9708  -34.9455 H   0  0  0  0  0  0  0  0  0  0  0  0
  -15.5302  -22.2559  -39.4338 H   0  0  0  0  0  0  0  0  0  0  0  0
  -10.5495  -28.7192  -36.3719 H   0  0  0  0  0  0  0  0  0  0  0  0
   -8.9952  -25.4300  -34.0710 H   0  0  0  0  0  0  0  0  0  0  0  0
  -17.8123  -22.1178  -40.3298 H   0  0  0  0  0  0  0  0  0  0  0  0
  -16.7489  -25.3895  -36.7499 H   0  0  0  0  0  0  0  0  0  0  0  0
   -8.2903  -28.7791  -36.5343 H   0  0  0  0  0  0  0  0  0  0  0  0
   -9.1237  -29.8503  -35.3965 H   0  0  0  0  0  0  0  0  0  0  0  0
   -7.1295  -31.5579  -35.9746 H   0  0  0  0  0  0  0  0  0  0  0  0
  -12.4633  -23.6966  -36.6978 H   0  0  0  0  0  0  0  0  0  0  0  0
  -14.1843  -23.0271  -37.4462 H   0  0  0  0  0  0  0  0  0  0  0  0
  1  2  2  0  0  0  0
  1  3  1  0  0  0  0
  2  4  1  0  0  0  0
  3 12  2  0  0  0  0
  4 13  2  0  0  0  0
  5  8  1  0  0  0  0
  5 14  2  0  0  0  0
  6  9  2  0  0  0  0
  6 14  1  0  0  0  0
  7 10  1  0  0  0  0
  7 15  2  0  0  0  0
  8 16  2  0  0  0  0
  9 16  1  0  0  0  0
 10 17  2  0  0  0  0
 11 15  1  0  0  0  0
 11 18  2  0  0  0  0
 12 13  1  0  0  0  0
 12 22  1  0  0  0  0
 13 23  1  0  0  0  0
 14 24  1  0  0  0  0
 15 25  1  0  0  0  0
 16 27  1  0  0  0  0
 17 18  1  0  0  0  0
 17 28  1  0  0  0  0
 18 29  1  0  0  0  0
 19 21  1  0  0  0  0
 19 22  2  0  0  0  0
 19 23  1  0  0  0  0
 20 24  1  0  0  0  0
 20 25  1  0  0  0  0
 20 26  2  0  0  0  0
 21 27  1  0  0  0  0
  1 30  1  0  0  0  0
  2 31  1  0  0  0  0
  3 32  1  0  0  0  0
  4 33  1  0  0  0  0
  5 34  1  0  0  0  0
  6 35  1  0  0  0  0
  7 36  1  0  0  0  0
  8 37  1  0  0  0  0
  9 38  1  0  0  0  0
 10 39  1  0  0  0  0
 11 40  1  0  0  0  0
 21 41  1  0  0  0  0
 21 42  1  0  0  0  0
 23 43  1  0  0  0  0
 24 44  1  0  0  0  0
 25 45  1  0  0  0  0
M  END
> <Name>
EZ_19

> <SourceTag>
EZ_19

> <Activity_sEH>
10.5

> <Activity_FLAP>
0.6

> <Gold.Version>
5.2

> <Gold.Id.Protein>
6HGV|6HGV_protein|mol2

> <Gold.Goldscore.Fitness>
81.1869

> <Gold.Goldscore.Internal.Vdw>
-6.1038

> <Gold.Goldscore.Internal.Torsion>
-5.2471

> <Gold.Goldscore.External.Vdw>
57.9282

> <Gold.Goldscore.Internal.HBond>
0.0000

> <Gold.Goldscore.External.HBond>
4.0044

> <Gold.Goldscore.Internal.Correction>
-8.8822

> <Gold.Goldscore.Hbonds>
donor molecule, donor type, donor heavy atom, donor atom, acceptor molecule, acceptor atom, score
      P1  H  1247  3847       L1    26  0.26
      L1  H    24    44       P1   854  0.40
      L1  H    25    45       P1   854  0.18

> <Gold.Goldscore.Internal.Vdw.Weighted>
-6.1038

> <Gold.Goldscore.Internal.Torsion.Weighted>
-5.2471

> <Gold.Goldscore.External.Vdw.Weighted>
79.6513

> <Gold.Goldscore.Internal.HBond.Weighted>
0.0000

> <Gold.Goldscore.External.HBond.Weighted>
4.0044

> <Gold.Goldscore.Internal.Correction.Weighted>
-8.8822

> <Gold.Protein.RotatedTorsions>
[ 3781 1176 1175 1172 ] final -130.01 input   60.00 | X-H torsion
[ 3847 1247 1246 1244 ] final -159.46 input   60.00 | X-H torsion
[ 4507 1931 1930 1928 ] final  -82.90 input   60.00 | X-H torsion
[ 3677 1070 1069 1066 ] final -118.37 input   60.00 | X-H torsion
[ 3525  925  924  922 ] final  -28.89 input   59.99 | X-H torsion
[ 4531 1957 1955 1953 ] final  -27.52 input   60.00 | X-H torsion

> <Gold.Protein.ActiveResidues>
 PHE267  PRO268  MET310  ASP335  TRP336  MET339  TYR343  THR360  PRO361  ILE363 
 PRO371  SER374  ILE375  ASN378  PHE381  TYR383  GLN384  PHE387  LEU408  LEU417 
 MET419  LEU428  TYR466  MET469  ASN472  ASP496  VAL498  LEU499  MET503  HIS524 
 TRP525 

> <Gold.Protein.RotatedAtoms>
   -3.7634  -29.5132  -30.0403 H   0  0  0  0  0  0  0  0  0  0  0  0  # atno 3525 bound_to 925 
  -11.4833  -23.5963  -31.4507 H   0  0  0  0  0  0  0  0  0  0  0  0  # atno 3677 bound_to 1070
   -9.3800  -36.3102  -33.6154 H   0  0  0  0  0  0  0  0  0  0  0  0  # atno 3781 bound_to 1176
  -14.9506  -27.2691  -37.9072 H   0  0  0  0  0  0  0  0  0  0  0  0  # atno 3847 bound_to 1247
  -13.6852  -24.9885  -40.2047 H   0  0  0  0  0  0  0  0  0  0  0  0  # atno 4507 bound_to 1931
   -2.4928  -32.2523  -36.7540 H   0  0  0  0  0  0  0  0  0  0  0  0  # atno 4531 bound_to 1957
   -9.9776  -37.1719  -32.3710 LP  0  0  0  0  0  0  0  0  0  0  0  0  # atno 5205 bound_to 1176
  -10.7577  -37.1551  -33.8055 LP  0  0  0  0  0  0  0  0  0  0  0  0  # atno 5206 bound_to 1176
  -14.5698  -28.7901  -37.4720 LP  0  0  0  0  0  0  0  0  0  0  0  0  # atno 5215 bound_to 1247
  -16.0457  -28.1837  -37.1248 LP  0  0  0  0  0  0  0  0  0  0  0  0  # atno 5216 bound_to 1247
  -12.6504  -23.7716  -39.8943 LP  0  0  0  0  0  0  0  0  0  0  0  0  # atno 5217 bound_to 1931
  -12.8548  -24.9711  -38.8053 LP  0  0  0  0  0  0  0  0  0  0  0  0  # atno 5218 bound_to 1931
  -11.5565  -22.1980  -30.6214 LP  0  0  0  0  0  0  0  0  0  0  0  0  # atno 5224 bound_to 1070
  -12.8176  -23.2350  -30.5920 LP  0  0  0  0  0  0  0  0  0  0  0  0  # atno 5225 bound_to 1070

$$$$
EZ_19|Lisa_paper2_min|sdf|7|dock3
  -GOLD-  10182017 13D 1   1.00000     0.00000

 45 48  0  0  0  0  0  0  0  0  1 V2000
   -3.0331  -31.0214  -33.3485 C   0  0  0  0  0  0  0  0  0  0  0  0
   -3.3655  -32.1853  -34.0455 C   0  0  0  0  0  0  0  0  0  0  0  0
   -3.8787  -29.9050  -33.3635 C   0  0  0  0  0  0  0  0  0  0  0  0
   -4.5517  -32.2771  -34.7810 C   0  0  0  0  0  0  0  0  0  0  0  0
  -10.9178  -25.0918  -35.2265 C   0  0  0  0  0  0  0  0  0  0  0  0
  -11.6374  -27.0018  -36.5193 C   0  0  0  0  0  0  0  0  0  0  0  0
  -17.3982  -23.9300  -37.7081 C   0  0  0  0  0  0  0  0  0  0  0  0
   -9.7297  -25.7516  -34.9129 C   0  0  0  0  0  0  0  0  0  0  0  0
  -10.4492  -27.6616  -36.2057 C   0  0  0  0  0  0  0  0  0  0  0  0
  -18.5037  -23.8602  -38.5557 C   0  0  0  0  0  0  0  0  0  0  0  0
  -16.0368  -24.7054  -39.5472 C   0  0  0  0  0  0  0  0  0  0  0  0
   -5.0746  -29.9796  -34.0975 C   0  0  0  0  0  0  0  0  0  0  0  0
   -5.3786  -31.1532  -34.7818 C   0  0  0  0  0  0  0  0  0  0  0  0
  -11.8718  -25.7169  -36.0297 C   0  0  0  0  0  0  0  0  0  0  0  0
  -16.1647  -24.3525  -38.2038 C   0  0  0  0  0  0  0  0  0  0  0  0
   -9.4953  -27.0365  -35.4025 C   0  0  0  0  0  0  0  0  0  0  0  0
  -18.3758  -24.2130  -39.8992 C   0  0  0  0  0  0  0  0  0  0  0  0
  -17.1423  -24.6356  -40.3950 C   0  0  0  0  0  0  0  0  0  0  0  0
   -6.9540  -29.6225  -35.0462 C   0  0  0  0  0  0  0  0  0  0  0  0
  -13.9762  -25.3341  -37.3876 C   0  0  0  0  0  0  0  0  0  0  0  0
   -8.2169  -29.0376  -35.5339 C   0  0  0  0  0  0  0  0  0  0  0  0
   -6.0647  -29.0404  -34.2733 N   0  0  0  0  0  0  0  0  0  0  0  0
   -6.5858  -30.8963  -35.3793 N   0  0  0  0  0  0  0  0  0  0  0  0
  -13.0603  -25.0570  -36.3434 N   0  0  0  0  0  0  0  0  0  0  0  0
  -15.0434  -24.4227  -37.3437 N   0  0  0  0  0  0  0  0  0  0  0  0
  -13.8492  -26.2389  -38.2063 O   0  0  0  0  0  0  0  0  0  0  0  0
   -8.3303  -27.6836  -35.0950 O   0  0  0  0  0  0  0  0  0  0  0  0
  -19.7829  -24.1083  -40.8978 Cl  0  0  0  0  0  0  0  0  0  0  0  0
  -16.9215  -25.0880  -42.0489 Cl  0  0  0  0  0  0  0  0  0  0  0  0
   -2.1041  -30.9807  -32.7853 H   0  0  0  0  0  0  0  0  0  0  0  0
   -2.6892  -33.0362  -34.0173 H   0  0  0  0  0  0  0  0  0  0  0  0
   -3.6114  -29.0059  -32.8178 H   0  0  0  0  0  0  0  0  0  0  0  0
   -4.8119  -33.1799  -35.3216 H   0  0  0  0  0  0  0  0  0  0  0  0
  -11.0900  -24.0906  -34.8397 H   0  0  0  0  0  0  0  0  0  0  0  0
  -12.3736  -27.4987  -37.1459 H   0  0  0  0  0  0  0  0  0  0  0  0
  -17.5083  -23.6513  -36.6632 H   0  0  0  0  0  0  0  0  0  0  0  0
   -8.9904  -25.2594  -34.2869 H   0  0  0  0  0  0  0  0  0  0  0  0
  -10.2724  -28.6625  -36.5899 H   0  0  0  0  0  0  0  0  0  0  0  0
  -19.4568  -23.5272  -38.1526 H   0  0  0  0  0  0  0  0  0  0  0  0
  -15.0723  -25.0356  -39.9278 H   0  0  0  0  0  0  0  0  0  0  0  0
   -8.2809  -29.0430  -36.6369 H   0  0  0  0  0  0  0  0  0  0  0  0
   -9.0987  -29.5911  -35.1646 H   0  0  0  0  0  0  0  0  0  0  0  0
   -7.1087  -31.5374  -35.9614 H   0  0  0  0  0  0  0  0  0  0  0  0
  -13.3031  -24.2661  -35.7374 H   0  0  0  0  0  0  0  0  0  0  0  0
  -15.0126  -23.7240  -36.6055 H   0  0  0  0  0  0  0  0  0  0  0  0
  1  2  2  0  0  0  0
  1  3  1  0  0  0  0
  2  4  1  0  0  0  0
  3 12  2  0  0  0  0
  4 13  2  0  0  0  0
  5  8  1  0  0  0  0
  5 14  2  0  0  0  0
  6  9  2  0  0  0  0
  6 14  1  0  0  0  0
  7 10  1  0  0  0  0
  7 15  2  0  0  0  0
  8 16  2  0  0  0  0
  9 16  1  0  0  0  0
 10 17  2  0  0  0  0
 11 15  1  0  0  0  0
 11 18  2  0  0  0  0
 12 13  1  0  0  0  0
 12 22  1  0  0  0  0
 13 23  1  0  0  0  0
 14 24  1  0  0  0  0
 15 25  1  0  0  0  0
 16 27  1  0  0  0  0
 17 18  1  0  0  0  0
 17 28  1  0  0  0  0
 18 29  1  0  0  0  0
 19 21  1  0  0  0  0
 19 22  2  0  0  0  0
 19 23  1  0  0  0  0
 20 24  1  0  0  0  0
 20 25  1  0  0  0  0
 20 26  2  0  0  0  0
 21 27  1  0  0  0  0
  1 30  1  0  0  0  0
  2 31  1  0  0  0  0
  3 32  1  0  0  0  0
  4 33  1  0  0  0  0
  5 34  1  0  0  0  0
  6 35  1  0  0  0  0
  7 36  1  0  0  0  0
  8 37  1  0  0  0  0
  9 38  1  0  0  0  0
 10 39  1  0  0  0  0
 11 40  1  0  0  0  0
 21 41  1  0  0  0  0
 21 42  1  0  0  0  0
 23 43  1  0  0  0  0
 24 44  1  0  0  0  0
 25 45  1  0  0  0  0
M  END
> <Name>
EZ_19

> <SourceTag>
EZ_19

> <Activity_sEH>
10.5

> <Activity_FLAP>
0.6

> <Gold.Version>
5.2

> <Gold.Id.Protein>
6HGV|6HGV_protein|mol2

> <Gold.Goldscore.Fitness>
80.4212

> <Gold.Goldscore.Internal.Vdw>
-12.0989

> <Gold.Goldscore.Internal.Torsion>
-3.2765

> <Gold.Goldscore.External.Vdw>
58.3880

> <Gold.Goldscore.Internal.HBond>
0.0000

> <Gold.Goldscore.External.HBond>
6.2357

> <Gold.Goldscore.Internal.Correction>
-9.2775

> <Gold.Goldscore.Hbonds>
donor molecule, donor type, donor heavy atom, donor atom, acceptor molecule, acceptor atom, score
      L1  H    24    44       P1   853  0.70
      L1  H    25    45       P1   853  0.34

> <Gold.Goldscore.Internal.Vdw.Weighted>
-12.0989

> <Gold.Goldscore.Internal.Torsion.Weighted>
-3.2765

> <Gold.Goldscore.External.Vdw.Weighted>
80.2835

> <Gold.Goldscore.Internal.HBond.Weighted>
0.0000

> <Gold.Goldscore.External.HBond.Weighted>
6.2357

> <Gold.Goldscore.Internal.Correction.Weighted>
-9.2775

> <Gold.Protein.RotatedTorsions>
[ 3781 1176 1175 1172 ] final -147.78 input   60.00 | X-H torsion
[ 3847 1247 1246 1244 ] final  -88.68 input   60.00 | X-H torsion
[ 4507 1931 1930 1928 ] final  121.84 input   60.00 | X-H torsion
[ 3677 1070 1069 1066 ] final -112.45 input   60.00 | X-H torsion
[ 3525  925  924  922 ] final  -19.68 input   59.99 | X-H torsion
[ 4531 1957 1955 1953 ] final  -43.97 input   60.00 | X-H torsion

> <Gold.Protein.ActiveResidues>
 PHE267  PRO268  MET310  ASP335  TRP336  MET339  TYR343  THR360  PRO361  ILE363 
 PRO371  SER374  ILE375  ASN378  PHE381  TYR383  GLN384  PHE387  LEU408  LEU417 
 MET419  LEU428  TYR466  MET469  ASN472  ASP496  VAL498  LEU499  MET503  HIS524 
 TRP525 

> <Gold.Protein.RotatedAtoms>
   -3.7324  -29.5133  -30.1874 H   0  0  0  0  0  0  0  0  0  0  0  0  # atno 3525 bound_to 925 
  -11.5604  -23.6545  -31.4460 H   0  0  0  0  0  0  0  0  0  0  0  0  # atno 3677 bound_to 1070
   -9.2748  -36.3403  -33.3476 H   0  0  0  0  0  0  0  0  0  0  0  0  # atno 3781 bound_to 1176
  -15.9093  -27.4845  -37.4485 H   0  0  0  0  0  0  0  0  0  0  0  0  # atno 3847 bound_to 1247
  -12.4503  -23.9190  -39.3822 H   0  0  0  0  0  0  0  0  0  0  0  0  # atno 4507 bound_to 1931
   -2.2353  -32.1971  -36.8020 H   0  0  0  0  0  0  0  0  0  0  0  0  # atno 4531 bound_to 1957
  -10.2239  -37.3078  -32.4469 LP  0  0  0  0  0  0  0  0  0  0  0  0  # atno 5205 bound_to 1176
  -10.6174  -36.9889  -33.9993 LP  0  0  0  0  0  0  0  0  0  0  0  0  # atno 5206 bound_to 1176
  -14.3860  -27.8108  -37.9188 LP  0  0  0  0  0  0  0  0  0  0  0  0  # atno 5215 bound_to 1247
  -15.2640  -28.9461  -37.1399 LP  0  0  0  0  0  0  0  0  0  0  0  0  # atno 5216 bound_to 1247
  -13.2405  -25.3051  -39.0621 LP  0  0  0  0  0  0  0  0  0  0  0  0  # atno 5217 bound_to 1931
  -13.5083  -24.5146  -40.4657 LP  0  0  0  0  0  0  0  0  0  0  0  0  # atno 5218 bound_to 1931
  -11.4790  -22.2241  -30.6743 LP  0  0  0  0  0  0  0  0  0  0  0  0  # atno 5224 bound_to 1070
  -12.8174  -23.1504  -30.5438 LP  0  0  0  0  0  0  0  0  0  0  0  0  # atno 5225 bound_to 1070

$$$$
EZ_19|Lisa_paper2_min|sdf|7|dock2
  -GOLD-  10182017 13D 1   1.00000     0.00000

 45 48  0  0  0  0  0  0  0  0  1 V2000
   -3.0877  -30.8564  -33.1474 C   0  0  0  0  0  0  0  0  0  0  0  0
   -3.4041  -32.0495  -33.8011 C   0  0  0  0  0  0  0  0  0  0  0  0
   -3.9483  -29.7528  -33.2038 C   0  0  0  0  0  0  0  0  0  0  0  0
   -4.5884  -32.1843  -34.5330 C   0  0  0  0  0  0  0  0  0  0  0  0
  -10.9238  -25.0251  -35.3742 C   0  0  0  0  0  0  0  0  0  0  0  0
  -11.7161  -27.0199  -36.4834 C   0  0  0  0  0  0  0  0  0  0  0  0
  -17.4947  -23.9971  -37.6854 C   0  0  0  0  0  0  0  0  0  0  0  0
   -9.7194  -25.6654  -35.0828 C   0  0  0  0  0  0  0  0  0  0  0  0
  -10.5116  -27.6602  -36.1921 C   0  0  0  0  0  0  0  0  0  0  0  0
  -18.6047  -23.9297  -38.5272 C   0  0  0  0  0  0  0  0  0  0  0  0
  -16.1236  -24.6934  -39.5487 C   0  0  0  0  0  0  0  0  0  0  0  0
   -5.1425  -29.8704  -33.9348 C   0  0  0  0  0  0  0  0  0  0  0  0
   -5.4303  -31.0724  -34.5755 C   0  0  0  0  0  0  0  0  0  0  0  0
  -11.9223  -25.7023  -36.0745 C   0  0  0  0  0  0  0  0  0  0  0  0
  -16.2541  -24.3789  -38.1961 C   0  0  0  0  0  0  0  0  0  0  0  0
   -9.5132  -26.9829  -35.4918 C   0  0  0  0  0  0  0  0  0  0  0  0
  -18.4741  -24.2440  -39.8799 C   0  0  0  0  0  0  0  0  0  0  0  0
  -17.2336  -24.6260  -40.3908 C   0  0  0  0  0  0  0  0  0  0  0  0
   -7.0258  -29.5737  -34.8965 C   0  0  0  0  0  0  0  0  0  0  0  0
  -14.0402  -25.3313  -37.4145 C   0  0  0  0  0  0  0  0  0  0  0  0
   -8.2961  -29.0242  -35.4059 C   0  0  0  0  0  0  0  0  0  0  0  0
   -6.1449  -28.9517  -34.1454 N   0  0  0  0  0  0  0  0  0  0  0  0
   -6.6404  -30.8539  -35.1824 N   0  0  0  0  0  0  0  0  0  0  0  0
  -13.1271  -25.0620  -36.3659 N   0  0  0  0  0  0  0  0  0  0  0  0
  -15.1282  -24.4467  -37.3418 N   0  0  0  0  0  0  0  0  0  0  0  0
  -13.8951  -26.2097  -38.2585 O   0  0  0  0  0  0  0  0  0  0  0  0
   -8.3323  -27.6108  -35.2061 O   0  0  0  0  0  0  0  0  0  0  0  0
  -19.8871  -24.1445  -40.8709 Cl  0  0  0  0  0  0  0  0  0  0  0  0
  -17.0091  -25.0296  -42.0568 Cl  0  0  0  0  0  0  0  0  0  0  0  0
   -2.1598  -30.7825  -32.5859 H   0  0  0  0  0  0  0  0  0  0  0  0
   -2.7164  -32.8897  -33.7413 H   0  0  0  0  0  0  0  0  0  0  0  0
   -3.6934  -28.8306  -32.6915 H   0  0  0  0  0  0  0  0  0  0  0  0
   -4.8360  -33.1098  -35.0401 H   0  0  0  0  0  0  0  0  0  0  0  0
  -11.0737  -23.9982  -35.0507 H   0  0  0  0  0  0  0  0  0  0  0  0
  -12.4870  -27.5575  -37.0296 H   0  0  0  0  0  0  0  0  0  0  0  0
  -17.6069  -23.7485  -36.6331 H   0  0  0  0  0  0  0  0  0  0  0  0
   -8.9455  -25.1326  -34.5371 H   0  0  0  0  0  0  0  0  0  0  0  0
  -10.3569  -28.6866  -36.5132 H   0  0  0  0  0  0  0  0  0  0  0  0
  -19.5633  -23.6286  -38.1123 H   0  0  0  0  0  0  0  0  0  0  0  0
  -15.1534  -24.9920  -39.9411 H   0  0  0  0  0  0  0  0  0  0  0  0
   -8.4317  -29.2178  -36.4851 H   0  0  0  0  0  0  0  0  0  0  0  0
   -9.1711  -29.4638  -34.8947 H   0  0  0  0  0  0  0  0  0  0  0  0
   -7.1541  -31.5229  -35.7405 H   0  0  0  0  0  0  0  0  0  0  0  0
  -13.3859  -24.2943  -35.7371 H   0  0  0  0  0  0  0  0  0  0  0  0
  -15.1109  -23.7684  -36.5845 H   0  0  0  0  0  0  0  0  0  0  0  0
  1  2  2  0  0  0  0
  1  3  1  0  0  0  0
  2  4  1  0  0  0  0
  3 12  2  0  0  0  0
  4 13  2  0  0  0  0
  5  8  1  0  0  0  0
  5 14  2  0  0  0  0
  6  9  2  0  0  0  0
  6 14  1  0  0  0  0
  7 10  1  0  0  0  0
  7 15  2  0  0  0  0
  8 16  2  0  0  0  0
  9 16  1  0  0  0  0
 10 17  2  0  0  0  0
 11 15  1  0  0  0  0
 11 18  2  0  0  0  0
 12 13  1  0  0  0  0
 12 22  1  0  0  0  0
 13 23  1  0  0  0  0
 14 24  1  0  0  0  0
 15 25  1  0  0  0  0
 16 27  1  0  0  0  0
 17 18  1  0  0  0  0
 17 28  1  0  0  0  0
 18 29  1  0  0  0  0
 19 21  1  0  0  0  0
 19 22  2  0  0  0  0
 19 23  1  0  0  0  0
 20 24  1  0  0  0  0
 20 25  1  0  0  0  0
 20 26  2  0  0  0  0
 21 27  1  0  0  0  0
  1 30  1  0  0  0  0
  2 31  1  0  0  0  0
  3 32  1  0  0  0  0
  4 33  1  0  0  0  0
  5 34  1  0  0  0  0
  6 35  1  0  0  0  0
  7 36  1  0  0  0  0
  8 37  1  0  0  0  0
  9 38  1  0  0  0  0
 10 39  1  0  0  0  0
 11 40  1  0  0  0  0
 21 41  1  0  0  0  0
 21 42  1  0  0  0  0
 23 43  1  0  0  0  0
 24 44  1  0  0  0  0
 25 45  1  0  0  0  0
M  END
> <Name>
EZ_19

> <SourceTag>
EZ_19

> <Activity_sEH>
10.5

> <Activity_FLAP>
0.6

> <Gold.Version>
5.2

> <Gold.Id.Protein>
6HGV|6HGV_protein|mol2

> <Gold.Goldscore.Fitness>
79.8491

> <Gold.Goldscore.Internal.Vdw>
-10.1575

> <Gold.Goldscore.Internal.Torsion>
-3.9491

> <Gold.Goldscore.External.Vdw>
57.1533

> <Gold.Goldscore.Internal.HBond>
0.0000

> <Gold.Goldscore.External.HBond>
6.0923

> <Gold.Goldscore.Internal.Correction>
-9.2775

> <Gold.Goldscore.Hbonds>
donor molecule, donor type, donor heavy atom, donor atom, acceptor molecule, acceptor atom, score
      P1  H  1247  3847       L1    26  0.09
      L1  H    24    44       P1   853  0.70
      L1  H    25    45       P1   853  0.28

> <Gold.Goldscore.Internal.Vdw.Weighted>
-10.1575

> <Gold.Goldscore.Internal.Torsion.Weighted>
-3.9491

> <Gold.Goldscore.External.Vdw.Weighted>
78.5858

> <Gold.Goldscore.Internal.HBond.Weighted>
0.0000

> <Gold.Goldscore.External.HBond.Weighted>
6.0923

> <Gold.Goldscore.Internal.Correction.Weighted>
-9.2775

> <Gold.Protein.RotatedTorsions>
[ 3781 1176 1175 1172 ] final  -61.23 input   60.00 | X-H torsion
[ 3847 1247 1246 1244 ] final  164.83 input   60.00 | X-H torsion
[ 4507 1931 1930 1928 ] final  123.45 input   60.00 | X-H torsion
[ 3677 1070 1069 1066 ] final -100.78 input   60.00 | X-H torsion
[ 3525  925  924  922 ] final  -41.13 input   59.99 | X-H torsion
[ 4531 1957 1955 1953 ] final   -6.41 input   60.00 | X-H torsion

> <Gold.Protein.ActiveResidues>
 PHE267  PRO268  MET310  ASP335  TRP336  MET339  TYR343  THR360  PRO361  ILE363 
 PRO371  SER374  ILE375  ASN378  PHE381  TYR383  GLN384  PHE387  LEU408  LEU417 
 MET419  LEU428  TYR466  MET469  ASN472  ASP496  VAL498  LEU499  MET503  HIS524 
 TRP525 

> <Gold.Protein.RotatedAtoms>
   -3.7705  -29.5283  -29.8414 H   0  0  0  0  0  0  0  0  0  0  0  0  # atno 3525 bound_to 925 
  -11.7237  -23.7486  -31.4193 H   0  0  0  0  0  0  0  0  0  0  0  0  # atno 3677 bound_to 1070
  -10.2155  -36.6641  -34.1586 H   0  0  0  0  0  0  0  0  0  0  0  0  # atno 3781 bound_to 1176
  -14.5015  -27.6244  -37.9475 H   0  0  0  0  0  0  0  0  0  0  0  0  # atno 3847 bound_to 1247
  -12.4549  -23.9065  -39.4049 H   0  0  0  0  0  0  0  0  0  0  0  0  # atno 4507 bound_to 1931
   -2.7832  -32.4274  -36.7018 H   0  0  0  0  0  0  0  0  0  0  0  0  # atno 4531 bound_to 1957
   -9.2724  -36.5258  -32.8397 LP  0  0  0  0  0  0  0  0  0  0  0  0  # atno 5205 bound_to 1176
  -10.6215  -37.4446  -32.7897 LP  0  0  0  0  0  0  0  0  0  0  0  0  # atno 5206 bound_to 1176
  -15.0559  -28.9668  -37.2137 LP  0  0  0  0  0  0  0  0  0  0  0  0  # atno 5215 bound_to 1247
  -16.0119  -27.6492  -37.3425 LP  0  0  0  0  0  0  0  0  0  0  0  0  # atno 5216 bound_to 1247
  -13.2232  -25.2951  -39.0447 LP  0  0  0  0  0  0  0  0  0  0  0  0  # atno 5217 bound_to 1931
  -13.5210  -24.5373  -40.4602 LP  0  0  0  0  0  0  0  0  0  0  0  0  # atno 5218 bound_to 1931
  -11.3417  -22.2996  -30.7848 LP  0  0  0  0  0  0  0  0  0  0  0  0  # atno 5224 bound_to 1070
  -12.7902  -22.9801  -30.4602 LP  0  0  0  0  0  0  0  0  0  0  0  0  # atno 5225 bound_to 1070

$$$$
EZ_19|Lisa_paper2_min|sdf|7|dock5
  -GOLD-  10182017 23D 1   1.00000     0.00000

 45 48  0  0  0  0  0  0  0  0  1 V2000
   -3.0599  -30.9063  -33.3843 C   0  0  0  0  0  0  0  0  0  0  0  0
   -3.3401  -32.0346  -34.1584 C   0  0  0  0  0  0  0  0  0  0  0  0
   -3.9640  -29.8392  -33.3106 C   0  0  0  0  0  0  0  0  0  0  0  0
   -4.5305  -32.1387  -34.8853 C   0  0  0  0  0  0  0  0  0  0  0  0
  -11.8304  -27.0643  -36.3136 C   0  0  0  0  0  0  0  0  0  0  0  0
  -10.9198  -25.0000  -35.4494 C   0  0  0  0  0  0  0  0  0  0  0  0
  -17.5695  -24.0747  -37.5734 C   0  0  0  0  0  0  0  0  0  0  0  0
  -10.6302  -27.7142  -36.0261 C   0  0  0  0  0  0  0  0  0  0  0  0
   -9.7196  -25.6499  -35.1618 C   0  0  0  0  0  0  0  0  0  0  0  0
  -18.6897  -24.0089  -38.4017 C   0  0  0  0  0  0  0  0  0  0  0  0
  -16.1867  -24.5960  -39.4846 C   0  0  0  0  0  0  0  0  0  0  0  0
   -5.1650  -29.9268  -34.0346 C   0  0  0  0  0  0  0  0  0  0  0  0
   -5.4162  -31.0641  -34.7971 C   0  0  0  0  0  0  0  0  0  0  0  0
  -11.9753  -25.7071  -36.0253 C   0  0  0  0  0  0  0  0  0  0  0  0
  -16.3179  -24.3682  -38.1148 C   0  0  0  0  0  0  0  0  0  0  0  0
   -9.5748  -27.0070  -35.4501 C   0  0  0  0  0  0  0  0  0  0  0  0
  -18.5585  -24.2366  -39.7716 C   0  0  0  0  0  0  0  0  0  0  0  0
  -17.3070  -24.5302  -40.3131 C   0  0  0  0  0  0  0  0  0  0  0  0
   -7.0748  -29.6065  -34.9346 C   0  0  0  0  0  0  0  0  0  0  0  0
  -14.1060  -25.3341  -37.3443 C   0  0  0  0  0  0  0  0  0  0  0  0
   -8.3743  -29.0582  -35.3656 C   0  0  0  0  0  0  0  0  0  0  0  0
   -6.2064  -29.0327  -34.1323 N   0  0  0  0  0  0  0  0  0  0  0  0
   -6.6442  -30.8318  -35.3614 N   0  0  0  0  0  0  0  0  0  0  0  0
  -13.1757  -25.0569  -36.3130 N   0  0  0  0  0  0  0  0  0  0  0  0
  -15.1817  -24.4344  -37.2742 N   0  0  0  0  0  0  0  0  0  0  0  0
  -13.9834  -26.2301  -38.1733 O   0  0  0  0  0  0  0  0  0  0  0  0
   -8.3980  -27.6442  -35.1681 O   0  0  0  0  0  0  0  0  0  0  0  0
  -19.9843  -24.1439  -40.7446 Cl  0  0  0  0  0  0  0  0  0  0  0  0
  -17.0809  -24.8242  -42.0017 Cl  0  0  0  0  0  0  0  0  0  0  0  0
   -2.1261  -30.8549  -32.8300 H   0  0  0  0  0  0  0  0  0  0  0  0
   -2.6189  -32.8474  -34.1981 H   0  0  0  0  0  0  0  0  0  0  0  0
   -3.7370  -28.9674  -32.7054 H   0  0  0  0  0  0  0  0  0  0  0  0
   -4.7502  -33.0141  -35.4858 H   0  0  0  0  0  0  0  0  0  0  0  0
  -12.6464  -27.6251  -36.7623 H   0  0  0  0  0  0  0  0  0  0  0  0
  -11.0212  -23.9422  -35.2206 H   0  0  0  0  0  0  0  0  0  0  0  0
  -17.6825  -23.8940  -36.5074 H   0  0  0  0  0  0  0  0  0  0  0  0
  -10.5236  -28.7714  -36.2528 H   0  0  0  0  0  0  0  0  0  0  0  0
   -8.9010  -25.0937  -34.7133 H   0  0  0  0  0  0  0  0  0  0  0  0
  -19.6569  -23.7773  -37.9628 H   0  0  0  0  0  0  0  0  0  0  0  0
  -15.2079  -24.8260  -39.9010 H   0  0  0  0  0  0  0  0  0  0  0  0
   -8.5767  -29.2549  -36.4337 H   0  0  0  0  0  0  0  0  0  0  0  0
   -9.2158  -29.4961  -34.7997 H   0  0  0  0  0  0  0  0  0  0  0  0
   -7.1407  -31.4578  -35.9817 H   0  0  0  0  0  0  0  0  0  0  0  0
  -13.4164  -24.2742  -35.6957 H   0  0  0  0  0  0  0  0  0  0  0  0
  -15.1457  -23.7422  -36.5302 H   0  0  0  0  0  0  0  0  0  0  0  0
  1  2  2  0  0  0  0
  1  3  1  0  0  0  0
  2  4  1  0  0  0  0
  3 12  2  0  0  0  0
  4 13  2  0  0  0  0
  5  8  1  0  0  0  0
  5 14  2  0  0  0  0
  6  9  2  0  0  0  0
  6 14  1  0  0  0  0
  7 10  1  0  0  0  0
  7 15  2  0  0  0  0
  8 16  2  0  0  0  0
  9 16  1  0  0  0  0
 10 17  2  0  0  0  0
 11 15  1  0  0  0  0
 11 18  2  0  0  0  0
 12 13  1  0  0  0  0
 12 22  1  0  0  0  0
 13 23  1  0  0  0  0
 14 24  1  0  0  0  0
 15 25  1  0  0  0  0
 16 27  1  0  0  0  0
 17 18  1  0  0  0  0
 17 28  1  0  0  0  0
 18 29  1  0  0  0  0
 19 21  1  0  0  0  0
 19 22  2  0  0  0  0
 19 23  1  0  0  0  0
 20 24  1  0  0  0  0
 20 25  1  0  0  0  0
 20 26  2  0  0  0  0
 21 27  1  0  0  0  0
  1 30  1  0  0  0  0
  2 31  1  0  0  0  0
  3 32  1  0  0  0  0
  4 33  1  0  0  0  0
  5 34  1  0  0  0  0
  6 35  1  0  0  0  0
  7 36  1  0  0  0  0
  8 37  1  0  0  0  0
  9 38  1  0  0  0  0
 10 39  1  0  0  0  0
 11 40  1  0  0  0  0
 21 41  1  0  0  0  0
 21 42  1  0  0  0  0
 23 43  1  0  0  0  0
 24 44  1  0  0  0  0
 25 45  1  0  0  0  0
M  END
> <Name>
EZ_19

> <SourceTag>
EZ_19

> <Activity_sEH>
10.5

> <Activity_FLAP>
0.6

> <Gold.Version>
5.2

> <Gold.Id.Protein>
6HGV|6HGV_protein|mol2

> <Gold.Goldscore.Fitness>
78.7449

> <Gold.Goldscore.Internal.Vdw>
-9.8404

> <Gold.Goldscore.Internal.Torsion>
-4.8455

> <Gold.Goldscore.External.Vdw>
57.3750

> <Gold.Goldscore.Internal.HBond>
0.0000

> <Gold.Goldscore.External.HBond>
5.6579

> <Gold.Goldscore.Internal.Correction>
-8.8822

> <Gold.Goldscore.Hbonds>
donor molecule, donor type, donor heavy atom, donor atom, acceptor molecule, acceptor atom, score
      L1  H    24    44       P1   853  0.68
      L1  H    25    45       P1   853  0.26

> <Gold.Goldscore.Internal.Vdw.Weighted>
-9.8404

> <Gold.Goldscore.Internal.Torsion.Weighted>
-4.8455

> <Gold.Goldscore.External.Vdw.Weighted>
78.8906

> <Gold.Goldscore.Internal.HBond.Weighted>
0.0000

> <Gold.Goldscore.External.HBond.Weighted>
5.6579

> <Gold.Goldscore.Internal.Correction.Weighted>
-8.8822

> <Gold.Protein.RotatedTorsions>
[ 3781 1176 1175 1172 ] final  100.75 input   60.00 | X-H torsion
[ 3847 1247 1246 1244 ] final  -73.05 input   60.00 | X-H torsion
[ 4507 1931 1930 1928 ] final  105.59 input   60.00 | X-H torsion
[ 3677 1070 1069 1066 ] final -112.22 input   60.00 | X-H torsion
[ 3525  925  924  922 ] final   -6.64 input   59.99 | X-H torsion
[ 4531 1957 1955 1953 ] final  -48.49 input   60.00 | X-H torsion

> <Gold.Protein.ActiveResidues>
 PHE267  PRO268  MET310  ASP335  TRP336  MET339  TYR343  THR360  PRO361  ILE363 
 PRO371  SER374  ILE375  ASN378  PHE381  TYR383  GLN384  PHE387  LEU408  LEU417 
 MET419  LEU428  TYR466  MET469  ASN472  ASP496  VAL498  LEU499  MET503  HIS524 
 TRP525 

> <Gold.Protein.RotatedAtoms>
   -3.6527  -29.5300  -30.3838 H   0  0  0  0  0  0  0  0  0  0  0  0  # atno 3525 bound_to 925 
  -11.5634  -23.6566  -31.4457 H   0  0  0  0  0  0  0  0  0  0  0  0  # atno 3677 bound_to 1070
  -10.1047  -37.2463  -32.4069 H   0  0  0  0  0  0  0  0  0  0  0  0  # atno 3781 bound_to 1176
  -16.0183  -27.6819  -37.3302 H   0  0  0  0  0  0  0  0  0  0  0  0  # atno 3847 bound_to 1247
  -12.4319  -24.0722  -39.1672 H   0  0  0  0  0  0  0  0  0  0  0  0  # atno 4507 bound_to 1931
   -2.1627  -32.1953  -36.8157 H   0  0  0  0  0  0  0  0  0  0  0  0  # atno 4531 bound_to 1957
  -10.6926  -37.0709  -33.9141 LP  0  0  0  0  0  0  0  0  0  0  0  0  # atno 5205 bound_to 1176
   -9.3129  -36.3132  -33.4794 LP  0  0  0  0  0  0  0  0  0  0  0  0  # atno 5206 bound_to 1176
  -14.5167  -27.5925  -37.9510 LP  0  0  0  0  0  0  0  0  0  0  0  0  # atno 5215 bound_to 1247
  -15.0236  -28.9656  -37.2268 LP  0  0  0  0  0  0  0  0  0  0  0  0  # atno 5216 bound_to 1247
  -13.4048  -25.3732  -39.2605 LP  0  0  0  0  0  0  0  0  0  0  0  0  # atno 5217 bound_to 1931
  -13.3626  -24.2923  -40.4838 LP  0  0  0  0  0  0  0  0  0  0  0  0  # atno 5218 bound_to 1931
  -11.4761  -22.2252  -30.6764 LP  0  0  0  0  0  0  0  0  0  0  0  0  # atno 5224 bound_to 1070
  -12.8173  -23.1472  -30.5421 LP  0  0  0  0  0  0  0  0  0  0  0  0  # atno 5225 bound_to 1070

$$$$
EZ_19|Lisa_paper2_min|sdf|7|dock10
  -GOLD-  10182017 23D 1   1.00000     0.00000

 45 48  0  0  0  0  0  0  0  0  1 V2000
   -3.2370  -32.1979  -33.7569 C   0  0  0  0  0  0  0  0  0  0  0  0
   -2.8881  -30.9500  -33.2355 C   0  0  0  0  0  0  0  0  0  0  0  0
   -4.4345  -32.3763  -34.4610 C   0  0  0  0  0  0  0  0  0  0  0  0
   -3.7197  -29.8371  -33.3979 C   0  0  0  0  0  0  0  0  0  0  0  0
  -11.4205  -27.0214  -36.6325 C   0  0  0  0  0  0  0  0  0  0  0  0
  -10.5696  -25.2696  -35.2026 C   0  0  0  0  0  0  0  0  0  0  0  0
  -15.9837  -22.8984  -39.0279 C   0  0  0  0  0  0  0  0  0  0  0  0
  -10.4325  -27.8860  -36.1612 C   0  0  0  0  0  0  0  0  0  0  0  0
   -9.5818  -26.1342  -34.7312 C   0  0  0  0  0  0  0  0  0  0  0  0
  -17.2614  -22.7762  -39.5736 C   0  0  0  0  0  0  0  0  0  0  0  0
  -16.7541  -24.7116  -37.6295 C   0  0  0  0  0  0  0  0  0  0  0  0
   -5.2823  -31.2691  -34.6335 C   0  0  0  0  0  0  0  0  0  0  0  0
   -4.9072  -30.0382  -34.1025 C   0  0  0  0  0  0  0  0  0  0  0  0
  -11.4890  -25.7132  -36.1532 C   0  0  0  0  0  0  0  0  0  0  0  0
  -15.7300  -23.8661  -38.0558 C   0  0  0  0  0  0  0  0  0  0  0  0
   -9.5132  -27.4425  -35.2105 C   0  0  0  0  0  0  0  0  0  0  0  0
  -18.2856  -23.6218  -39.1474 C   0  0  0  0  0  0  0  0  0  0  0  0
  -18.0320  -24.5896  -38.1752 C   0  0  0  0  0  0  0  0  0  0  0  0
   -6.8570  -29.9193  -35.1410 C   0  0  0  0  0  0  0  0  0  0  0  0
  -13.7566  -25.1660  -37.1419 C   0  0  0  0  0  0  0  0  0  0  0  0
   -8.0912  -29.2962  -35.6546 C   0  0  0  0  0  0  0  0  0  0  0  0
   -6.4960  -31.1757  -35.2750 N   0  0  0  0  0  0  0  0  0  0  0  0
   -5.9328  -29.1937  -34.4422 N   0  0  0  0  0  0  0  0  0  0  0  0
  -12.4771  -24.8483  -36.6246 N   0  0  0  0  0  0  0  0  0  0  0  0
  -14.4335  -23.9900  -37.5029 N   0  0  0  0  0  0  0  0  0  0  0  0
  -14.2014  -26.3038  -37.2550 O   0  0  0  0  0  0  0  0  0  0  0  0
   -8.5446  -28.2901  -34.7484 O   0  0  0  0  0  0  0  0  0  0  0  0
  -19.8477  -23.4188  -39.8593 Cl  0  0  0  0  0  0  0  0  0  0  0  0
  -19.2598  -25.6647  -37.6048 Cl  0  0  0  0  0  0  0  0  0  0  0  0
   -2.5694  -33.0440  -33.6147 H   0  0  0  0  0  0  0  0  0  0  0  0
   -1.9527  -30.8410  -32.6919 H   0  0  0  0  0  0  0  0  0  0  0  0
   -4.6957  -33.3501  -34.8629 H   0  0  0  0  0  0  0  0  0  0  0  0
   -3.4500  -28.8677  -32.9949 H   0  0  0  0  0  0  0  0  0  0  0  0
  -12.1318  -27.3777  -37.3732 H   0  0  0  0  0  0  0  0  0  0  0  0
  -10.6134  -24.2523  -34.8221 H   0  0  0  0  0  0  0  0  0  0  0  0
  -15.1923  -22.2354  -39.3683 H   0  0  0  0  0  0  0  0  0  0  0  0
  -10.3844  -28.9039  -36.5382 H   0  0  0  0  0  0  0  0  0  0  0  0
   -8.8684  -25.7829  -33.9908 H   0  0  0  0  0  0  0  0  0  0  0  0
  -17.4406  -22.0175  -40.3313 H   0  0  0  0  0  0  0  0  0  0  0  0
  -16.5505  -25.4637  -36.8698 H   0  0  0  0  0  0  0  0  0  0  0  0
   -7.9399  -28.8212  -36.6406 H   0  0  0  0  0  0  0  0  0  0  0  0
   -8.9044  -30.0329  -35.7814 H   0  0  0  0  0  0  0  0  0  0  0  0
   -5.9916  -28.2097  -34.2155 H   0  0  0  0  0  0  0  0  0  0  0  0
  -12.2460  -23.8496  -36.5923 H   0  0  0  0  0  0  0  0  0  0  0  0
  -13.9361  -23.1162  -37.3512 H   0  0  0  0  0  0  0  0  0  0  0  0
  1  2  2  0  0  0  0
  1  3  1  0  0  0  0
  2  4  1  0  0  0  0
  3 12  2  0  0  0  0
  4 13  2  0  0  0  0
  5  8  1  0  0  0  0
  5 14  2  0  0  0  0
  6  9  2  0  0  0  0
  6 14  1  0  0  0  0
  7 10  1  0  0  0  0
  7 15  2  0  0  0  0
  8 16  2  0  0  0  0
  9 16  1  0  0  0  0
 10 17  2  0  0  0  0
 11 15  1  0  0  0  0
 11 18  2  0  0  0  0
 12 13  1  0  0  0  0
 12 22  1  0  0  0  0
 13 23  1  0  0  0  0
 14 24  1  0  0  0  0
 15 25  1  0  0  0  0
 16 27  1  0  0  0  0
 17 18  1  0  0  0  0
 17 28  1  0  0  0  0
 18 29  1  0  0  0  0
 19 21  1  0  0  0  0
 19 22  2  0  0  0  0
 19 23  1  0  0  0  0
 20 24  1  0  0  0  0
 20 25  1  0  0  0  0
 20 26  2  0  0  0  0
 21 27  1  0  0  0  0
  1 30  1  0  0  0  0
  2 31  1  0  0  0  0
  3 32  1  0  0  0  0
  4 33  1  0  0  0  0
  5 34  1  0  0  0  0
  6 35  1  0  0  0  0
  7 36  1  0  0  0  0
  8 37  1  0  0  0  0
  9 38  1  0  0  0  0
 10 39  1  0  0  0  0
 11 40  1  0  0  0  0
 21 41  1  0  0  0  0
 21 42  1  0  0  0  0
 23 43  1  0  0  0  0
 24 44  1  0  0  0  0
 25 45  1  0  0  0  0
M  END
> <Name>
EZ_19

> <SourceTag>
EZ_19

> <Activity_sEH>
10.5

> <Activity_FLAP>
0.6

> <Gold.Version>
5.2

> <Gold.Id.Protein>
6HGV|6HGV_protein|mol2

> <Gold.Goldscore.Fitness>
78.6299

> <Gold.Goldscore.Internal.Vdw>
-6.1916

> <Gold.Goldscore.Internal.Torsion>
-5.3698

> <Gold.Goldscore.External.Vdw>
55.5275

> <Gold.Goldscore.Internal.HBond>
0.0000

> <Gold.Goldscore.External.HBond>
4.9587

> <Gold.Goldscore.Internal.Correction>
-8.8822

> <Gold.Goldscore.Hbonds>
donor molecule, donor type, donor heavy atom, donor atom, acceptor molecule, acceptor atom, score
      P1  H  1247  3847       L1    26  0.30
      L1  H    24    44       P1   854  0.34
      L1  H    25    45       P1   854  0.39

> <Gold.Goldscore.Internal.Vdw.Weighted>
-6.1916

> <Gold.Goldscore.Internal.Torsion.Weighted>
-5.3698

> <Gold.Goldscore.External.Vdw.Weighted>
76.3504

> <Gold.Goldscore.Internal.HBond.Weighted>
0.0000

> <Gold.Goldscore.External.HBond.Weighted>
4.9587

> <Gold.Goldscore.Internal.Correction.Weighted>
-8.8822

> <Gold.Protein.RotatedTorsions>
[ 3781 1176 1175 1172 ] final   76.50 input   60.00 | X-H torsion
[ 3847 1247 1246 1244 ] final -169.24 input   60.00 | X-H torsion
[ 4507 1931 1930 1928 ] final  -71.84 input   60.00 | X-H torsion
[ 3677 1070 1069 1066 ] final  -98.26 input   60.00 | X-H torsion
[ 3525  925  924  922 ] final  -13.23 input   59.99 | X-H torsion
[ 4531 1957 1955 1953 ] final  -24.49 input   60.00 | X-H torsion

> <Gold.Protein.ActiveResidues>
 PHE267  PRO268  MET310  ASP335  TRP336  MET339  TYR343  THR360  PRO361  ILE363 
 PRO371  SER374  ILE375  ASN378  PHE381  TYR383  GLN384  PHE387  LEU408  LEU417 
 MET419  LEU428  TYR466  MET469  ASN472  ASP496  VAL498  LEU499  MET503  HIS524 
 TRP525 

> <Gold.Protein.RotatedAtoms>
   -3.6980  -29.5192  -30.2869 H   0  0  0  0  0  0  0  0  0  0  0  0  # atno 3525 bound_to 925 
  -11.7603  -23.7650  -31.4106 H   0  0  0  0  0  0  0  0  0  0  0  0  # atno 3677 bound_to 1070
  -10.4235  -37.3923  -32.5849 H   0  0  0  0  0  0  0  0  0  0  0  0  # atno 3781 bound_to 1176
  -14.8104  -27.3398  -37.9351 H   0  0  0  0  0  0  0  0  0  0  0  0  # atno 3847 bound_to 1247
  -13.6961  -25.1128  -40.0744 H   0  0  0  0  0  0  0  0  0  0  0  0  # atno 4507 bound_to 1931
   -2.5382  -32.2706  -36.7457 H   0  0  0  0  0  0  0  0  0  0  0  0  # atno 4531 bound_to 1957
  -10.4466  -36.8324  -34.1127 LP  0  0  0  0  0  0  0  0  0  0  0  0  # atno 5205 bound_to 1176
   -9.2378  -36.4047  -33.1015 LP  0  0  0  0  0  0  0  0  0  0  0  0  # atno 5206 bound_to 1176
  -14.6863  -28.8701  -37.3957 LP  0  0  0  0  0  0  0  0  0  0  0  0  # atno 5215 bound_to 1247
  -16.0703  -28.0325  -37.1729 LP  0  0  0  0  0  0  0  0  0  0  0  0  # atno 5216 bound_to 1247
  -12.7507  -23.7887  -40.0447 LP  0  0  0  0  0  0  0  0  0  0  0  0  # atno 5217 bound_to 1931
  -12.7435  -24.8289  -38.7860 LP  0  0  0  0  0  0  0  0  0  0  0  0  # atno 5218 bound_to 1931
  -11.3153  -22.3199  -30.8094 LP  0  0  0  0  0  0  0  0  0  0  0  0  # atno 5224 bound_to 1070
  -12.7798  -22.9433  -30.4444 LP  0  0  0  0  0  0  0  0  0  0  0  0  # atno 5225 bound_to 1070

$$$$
EZ_19|Lisa_paper2_min|sdf|7|dock9
  -GOLD-  10182017 23D 1   1.00000     0.00000

 45 48  0  0  0  0  0  0  0  0  1 V2000
   -3.0635  -30.9251  -32.9605 C   0  0  0  0  0  0  0  0  0  0  0  0
   -3.4157  -32.1630  -33.5032 C   0  0  0  0  0  0  0  0  0  0  0  0
   -3.8896  -29.8056  -33.1210 C   0  0  0  0  0  0  0  0  0  0  0  0
   -4.6030  -32.3281  -34.2241 C   0  0  0  0  0  0  0  0  0  0  0  0
  -10.8200  -25.1782  -35.2896 C   0  0  0  0  0  0  0  0  0  0  0  0
  -11.5480  -27.0357  -36.6523 C   0  0  0  0  0  0  0  0  0  0  0  0
  -16.0915  -24.6448  -39.4143 C   0  0  0  0  0  0  0  0  0  0  0  0
   -9.6105  -25.8294  -35.0479 C   0  0  0  0  0  0  0  0  0  0  0  0
  -10.3384  -27.6869  -36.4107 C   0  0  0  0  0  0  0  0  0  0  0  0
  -17.2304  -24.5631  -40.2154 C   0  0  0  0  0  0  0  0  0  0  0  0
  -17.4174  -24.0902  -37.4723 C   0  0  0  0  0  0  0  0  0  0  0  0
   -5.0862  -29.9533  -33.8426 C   0  0  0  0  0  0  0  0  0  0  0  0
   -5.4102  -31.1996  -34.3714 C   0  0  0  0  0  0  0  0  0  0  0  0
  -11.7888  -25.7813  -36.0917 C   0  0  0  0  0  0  0  0  0  0  0  0
  -16.1850  -24.4084  -38.0428 C   0  0  0  0  0  0  0  0  0  0  0  0
   -9.3696  -27.0838  -35.6085 C   0  0  0  0  0  0  0  0  0  0  0  0
  -18.4629  -24.2450  -39.6449 C   0  0  0  0  0  0  0  0  0  0  0  0
  -18.5565  -24.0085  -38.2733 C   0  0  0  0  0  0  0  0  0  0  0  0
   -6.9586  -29.6888  -34.8345 C   0  0  0  0  0  0  0  0  0  0  0  0
  -13.9512  -25.3832  -37.3506 C   0  0  0  0  0  0  0  0  0  0  0  0
   -8.2109  -29.1498  -35.3968 C   0  0  0  0  0  0  0  0  0  0  0  0
   -6.0597  -29.0276  -34.1403 N   0  0  0  0  0  0  0  0  0  0  0  0
   -6.6125  -31.0009  -35.0003 N   0  0  0  0  0  0  0  0  0  0  0  0
  -12.9988  -25.1300  -36.3334 N   0  0  0  0  0  0  0  0  0  0  0  0
  -15.0295  -24.4919  -37.2305 N   0  0  0  0  0  0  0  0  0  0  0  0
  -13.8430  -26.2546  -38.2074 O   0  0  0  0  0  0  0  0  0  0  0  0
   -8.1836  -27.7223  -35.3716 O   0  0  0  0  0  0  0  0  0  0  0  0
  -19.8365  -24.1559  -40.6906 Cl  0  0  0  0  0  0  0  0  0  0  0  0
  -20.0544  -23.6081  -37.5086 Cl  0  0  0  0  0  0  0  0  0  0  0  0
   -2.1342  -30.8284  -32.4046 H   0  0  0  0  0  0  0  0  0  0  0  0
   -2.7543  -33.0147  -33.3640 H   0  0  0  0  0  0  0  0  0  0  0  0
   -3.6070  -28.8485  -32.6945 H   0  0  0  0  0  0  0  0  0  0  0  0
   -4.8785  -33.2883  -34.6450 H   0  0  0  0  0  0  0  0  0  0  0  0
  -10.9970  -24.2009  -34.8477 H   0  0  0  0  0  0  0  0  0  0  0  0
  -12.2956  -27.5153  -37.2789 H   0  0  0  0  0  0  0  0  0  0  0  0
  -15.1362  -24.8950  -39.8687 H   0  0  0  0  0  0  0  0  0  0  0  0
   -8.8597  -25.3544  -34.4223 H   0  0  0  0  0  0  0  0  0  0  0  0
  -10.1566  -28.6639  -36.8501 H   0  0  0  0  0  0  0  0  0  0  0  0
  -17.1392  -24.7520  -41.2820 H   0  0  0  0  0  0  0  0  0  0  0  0
  -17.4838  -23.9054  -36.4020 H   0  0  0  0  0  0  0  0  0  0  0  0
   -8.3695  -29.4675  -36.4430 H   0  0  0  0  0  0  0  0  0  0  0  0
   -9.0970  -29.4843  -34.8283 H   0  0  0  0  0  0  0  0  0  0  0  0
   -7.1461  -31.7024  -35.4966 H   0  0  0  0  0  0  0  0  0  0  0  0
  -13.2292  -24.3665  -35.6887 H   0  0  0  0  0  0  0  0  0  0  0  0
  -14.9799  -23.8209  -36.4681 H   0  0  0  0  0  0  0  0  0  0  0  0
  1  2  2  0  0  0  0
  1  3  1  0  0  0  0
  2  4  1  0  0  0  0
  3 12  2  0  0  0  0
  4 13  2  0  0  0  0
  5  8  1  0  0  0  0
  5 14  2  0  0  0  0
  6  9  2  0  0  0  0
  6 14  1  0  0  0  0
  7 10  1  0  0  0  0
  7 15  2  0  0  0  0
  8 16  2  0  0  0  0
  9 16  1  0  0  0  0
 10 17  2  0  0  0  0
 11 15  1  0  0  0  0
 11 18  2  0  0  0  0
 12 13  1  0  0  0  0
 12 22  1  0  0  0  0
 13 23  1  0  0  0  0
 14 24  1  0  0  0  0
 15 25  1  0  0  0  0
 16 27  1  0  0  0  0
 17 18  1  0  0  0  0
 17 28  1  0  0  0  0
 18 29  1  0  0  0  0
 19 21  1  0  0  0  0
 19 22  2  0  0  0  0
 19 23  1  0  0  0  0
 20 24  1  0  0  0  0
 20 25  1  0  0  0  0
 20 26  2  0  0  0  0
 21 27  1  0  0  0  0
  1 30  1  0  0  0  0
  2 31  1  0  0  0  0
  3 32  1  0  0  0  0
  4 33  1  0  0  0  0
  5 34  1  0  0  0  0
  6 35  1  0  0  0  0
  7 36  1  0  0  0  0
  8 37  1  0  0  0  0
  9 38  1  0  0  0  0
 10 39  1  0  0  0  0
 11 40  1  0  0  0  0
 21 41  1  0  0  0  0
 21 42  1  0  0  0  0
 23 43  1  0  0  0  0
 24 44  1  0  0  0  0
 25 45  1  0  0  0  0
M  END
> <Name>
EZ_19

> <SourceTag>
EZ_19

> <Activity_sEH>
10.5

> <Activity_FLAP>
0.6

> <Gold.Version>
5.2

> <Gold.Id.Protein>
6HGV|6HGV_protein|mol2

> <Gold.Goldscore.Fitness>
78.5303

> <Gold.Goldscore.Internal.Vdw>
-8.2771

> <Gold.Goldscore.Internal.Torsion>
-4.4261

> <Gold.Goldscore.External.Vdw>
55.5233

> <Gold.Goldscore.Internal.HBond>
0.0000

> <Gold.Goldscore.External.HBond>
6.0069

> <Gold.Goldscore.Internal.Correction>
-8.8822

> <Gold.Goldscore.Hbonds>
donor molecule, donor type, donor heavy atom, donor atom, acceptor molecule, acceptor atom, score
      L1  H    24    44       P1   853  0.58
      L1  H    25    45       P1   853  0.42

> <Gold.Goldscore.Internal.Vdw.Weighted>
-8.2771

> <Gold.Goldscore.Internal.Torsion.Weighted>
-4.4261

> <Gold.Goldscore.External.Vdw.Weighted>
76.3445

> <Gold.Goldscore.Internal.HBond.Weighted>
0.0000

> <Gold.Goldscore.External.HBond.Weighted>
6.0069

> <Gold.Goldscore.Internal.Correction.Weighted>
-8.8822

> <Gold.Protein.RotatedTorsions>
[ 3781 1176 1175 1172 ] final -135.22 input   60.00 | X-H torsion
[ 3847 1247 1246 1244 ] final  -75.66 input   60.00 | X-H torsion
[ 4507 1931 1930 1928 ] final  112.16 input   60.00 | X-H torsion
[ 3677 1070 1069 1066 ] final -118.16 input   60.00 | X-H torsion
[ 3525  925  924  922 ] final  -27.03 input   59.99 | X-H torsion
[ 4531 1957 1955 1953 ] final   -5.37 input   60.00 | X-H torsion

> <Gold.Protein.ActiveResidues>
 PHE267  PRO268  MET310  ASP335  TRP336  MET339  TYR343  THR360  PRO361  ILE363 
 PRO371  SER374  ILE375  ASN378  PHE381  TYR383  GLN384  PHE387  LEU408  LEU417 
 MET419  LEU428  TYR466  MET469  ASN472  ASP496  VAL498  LEU499  MET503  HIS524 
 TRP525 

> <Gold.Protein.RotatedAtoms>
   -3.7588  -29.5125  -30.0704 H   0  0  0  0  0  0  0  0  0  0  0  0  # atno 3525 bound_to 925 
  -11.4860  -23.5985  -31.4506 H   0  0  0  0  0  0  0  0  0  0  0  0  # atno 3677 bound_to 1070
   -9.3421  -36.3134  -33.5392 H   0  0  0  0  0  0  0  0  0  0  0  0  # atno 3781 bound_to 1176
  -16.0042  -27.6464  -37.3493 H   0  0  0  0  0  0  0  0  0  0  0  0  # atno 3847 bound_to 1247
  -12.4333  -24.0046  -39.2505 H   0  0  0  0  0  0  0  0  0  0  0  0  # atno 4507 bound_to 1931
   -2.7957  -32.4387  -36.6996 H   0  0  0  0  0  0  0  0  0  0  0  0  # atno 4531 bound_to 1957
  -10.0503  -37.2153  -32.3846 LP  0  0  0  0  0  0  0  0  0  0  0  0  # atno 5205 bound_to 1176
  -10.7232  -37.1084  -33.8686 LP  0  0  0  0  0  0  0  0  0  0  0  0  # atno 5206 bound_to 1176
  -14.4911  -27.6268  -37.9479 LP  0  0  0  0  0  0  0  0  0  0  0  0  # atno 5215 bound_to 1247
  -15.0633  -28.9669  -37.2107 LP  0  0  0  0  0  0  0  0  0  0  0  0  # atno 5216 bound_to 1247
  -13.3409  -25.3531  -39.1757 LP  0  0  0  0  0  0  0  0  0  0  0  0  # atno 5217 bound_to 1931
  -13.4251  -24.3804  -40.4847 LP  0  0  0  0  0  0  0  0  0  0  0  0  # atno 5218 bound_to 1931
  -11.5536  -22.1988  -30.6233 LP  0  0  0  0  0  0  0  0  0  0  0  0  # atno 5224 bound_to 1070
  -12.8177  -23.2320  -30.5902 LP  0  0  0  0  0  0  0  0  0  0  0  0  # atno 5225 bound_to 1070

$$$$
EZ_19|Lisa_paper2_min|sdf|7|dock1
  -GOLD-  10182017 13D 1   1.00000     0.00000

 45 48  0  0  0  0  0  0  0  0  1 V2000
   -4.2016  -31.9772  -30.7686 C   0  0  0  0  0  0  0  0  0  0  0  0
   -3.3095  -31.9989  -31.8432 C   0  0  0  0  0  0  0  0  0  0  0  0
   -5.4888  -31.4436  -30.9103 C   0  0  0  0  0  0  0  0  0  0  0  0
   -3.6691  -31.4902  -33.0955 C   0  0  0  0  0  0  0  0  0  0  0  0
  -10.7022  -27.0308  -36.5708 C   0  0  0  0  0  0  0  0  0  0  0  0
  -10.1462  -25.2566  -35.0279 C   0  0  0  0  0  0  0  0  0  0  0  0
  -16.3307  -25.3818  -37.4285 C   0  0  0  0  0  0  0  0  0  0  0  0
   -9.6176  -27.7747  -36.1064 C   0  0  0  0  0  0  0  0  0  0  0  0
   -9.0616  -26.0005  -34.5634 C   0  0  0  0  0  0  0  0  0  0  0  0
  -17.6240  -25.4088  -37.9502 C   0  0  0  0  0  0  0  0  0  0  0  0
  -15.7958  -23.5037  -38.8510 C   0  0  0  0  0  0  0  0  0  0  0  0
   -5.8669  -30.9279  -32.1615 C   0  0  0  0  0  0  0  0  0  0  0  0
   -4.9559  -30.9637  -33.2135 C   0  0  0  0  0  0  0  0  0  0  0  0
  -10.9666  -25.7717  -36.0316 C   0  0  0  0  0  0  0  0  0  0  0  0
  -15.4166  -24.4293  -37.8789 C   0  0  0  0  0  0  0  0  0  0  0  0
   -8.7973  -27.2596  -35.1026 C   0  0  0  0  0  0  0  0  0  0  0  0
  -18.0033  -24.4831  -38.9223 C   0  0  0  0  0  0  0  0  0  0  0  0
  -17.0892  -23.5305  -39.3728 C   0  0  0  0  0  0  0  0  0  0  0  0
   -6.8749  -30.0492  -33.8262 C   0  0  0  0  0  0  0  0  0  0  0  0
  -13.2973  -25.4912  -36.9845 C   0  0  0  0  0  0  0  0  0  0  0  0
   -7.8536  -29.4097  -34.7253 C   0  0  0  0  0  0  0  0  0  0  0  0
   -7.0532  -30.3566  -32.5610 N   0  0  0  0  0  0  0  0  0  0  0  0
   -5.6274  -30.3953  -34.2653 N   0  0  0  0  0  0  0  0  0  0  0  0
  -12.0513  -25.0275  -36.4962 N   0  0  0  0  0  0  0  0  0  0  0  0
  -14.1050  -24.4020  -37.3490 N   0  0  0  0  0  0  0  0  0  0  0  0
  -13.6167  -26.6724  -37.0732 O   0  0  0  0  0  0  0  0  0  0  0  0
   -7.7338  -27.9890  -34.6472 O   0  0  0  0  0  0  0  0  0  0  0  0
  -19.6186  -24.5699  -39.5316 Cl  0  0  0  0  0  0  0  0  0  0  0  0
  -17.4988  -22.3591  -40.5764 Cl  0  0  0  0  0  0  0  0  0  0  0  0
   -3.8931  -32.3807  -29.8075 H   0  0  0  0  0  0  0  0  0  0  0  0
   -2.3159  -32.4181  -31.7039 H   0  0  0  0  0  0  0  0  0  0  0  0
   -6.1745  -31.4324  -30.0692 H   0  0  0  0  0  0  0  0  0  0  0  0
   -2.9785  -31.5072  -33.9308 H   0  0  0  0  0  0  0  0  0  0  0  0
  -11.3349  -27.4420  -37.3533 H   0  0  0  0  0  0  0  0  0  0  0  0
  -10.3425  -24.2767  -34.6005 H   0  0  0  0  0  0  0  0  0  0  0  0
  -16.0459  -26.1067  -36.6702 H   0  0  0  0  0  0  0  0  0  0  0  0
   -9.4169  -28.7548  -36.5302 H   0  0  0  0  0  0  0  0  0  0  0  0
   -8.4262  -25.5940  -33.7814 H   0  0  0  0  0  0  0  0  0  0  0  0
  -18.3236  -26.1570  -37.5864 H   0  0  0  0  0  0  0  0  0  0  0  0
  -15.0779  -22.7639  -39.1994 H   0  0  0  0  0  0  0  0  0  0  0  0
   -7.7068  -29.7049  -35.7797 H   0  0  0  0  0  0  0  0  0  0  0  0
   -8.8926  -29.6795  -34.4644 H   0  0  0  0  0  0  0  0  0  0  0  0
   -5.2624  -30.2588  -35.1987 H   0  0  0  0  0  0  0  0  0  0  0  0
  -11.9305  -24.0092  -36.4823 H   0  0  0  0  0  0  0  0  0  0  0  0
  -13.7036  -23.4768  -37.2191 H   0  0  0  0  0  0  0  0  0  0  0  0
  1  2  2  0  0  0  0
  1  3  1  0  0  0  0
  2  4  1  0  0  0  0
  3 12  2  0  0  0  0
  4 13  2  0  0  0  0
  5  8  1  0  0  0  0
  5 14  2  0  0  0  0
  6  9  2  0  0  0  0
  6 14  1  0  0  0  0
  7 10  1  0  0  0  0
  7 15  2  0  0  0  0
  8 16  2  0  0  0  0
  9 16  1  0  0  0  0
 10 17  2  0  0  0  0
 11 15  1  0  0  0  0
 11 18  2  0  0  0  0
 12 13  1  0  0  0  0
 12 22  1  0  0  0  0
 13 23  1  0  0  0  0
 14 24  1  0  0  0  0
 15 25  1  0  0  0  0
 16 27  1  0  0  0  0
 17 18  1  0  0  0  0
 17 28  1  0  0  0  0
 18 29  1  0  0  0  0
 19 21  1  0  0  0  0
 19 22  2  0  0  0  0
 19 23  1  0  0  0  0
 20 24  1  0  0  0  0
 20 25  1  0  0  0  0
 20 26  2  0  0  0  0
 21 27  1  0  0  0  0
  1 30  1  0  0  0  0
  2 31  1  0  0  0  0
  3 32  1  0  0  0  0
  4 33  1  0  0  0  0
  5 34  1  0  0  0  0
  6 35  1  0  0  0  0
  7 36  1  0  0  0  0
  8 37  1  0  0  0  0
  9 38  1  0  0  0  0
 10 39  1  0  0  0  0
 11 40  1  0  0  0  0
 21 41  1  0  0  0  0
 21 42  1  0  0  0  0
 23 43  1  0  0  0  0
 24 44  1  0  0  0  0
 25 45  1  0  0  0  0
M  END
> <Name>
EZ_19

> <SourceTag>
EZ_19

> <Activity_sEH>
10.5

> <Activity_FLAP>
0.6

> <Gold.Version>
5.2

> <Gold.Id.Protein>
6HGV|6HGV_protein|mol2

> <Gold.Goldscore.Fitness>
78.4647

> <Gold.Goldscore.Internal.Vdw>
-4.4306

> <Gold.Goldscore.Internal.Torsion>
-6.1189

> <Gold.Goldscore.External.Vdw>
54.4042

> <Gold.Goldscore.Internal.HBond>
0.0000

> <Gold.Goldscore.External.HBond>
4.9309

> <Gold.Goldscore.Internal.Correction>
-9.2775

> <Gold.Goldscore.Hbonds>
donor molecule, donor type, donor heavy atom, donor atom, acceptor molecule, acceptor atom, score
      P1  H  1247  3847       L1    26  0.14
      L1  H    24    44       P1   854  0.25
      L1  H    25    45       P1   854  0.52

> <Gold.Goldscore.Internal.Vdw.Weighted>
-4.4306

> <Gold.Goldscore.Internal.Torsion.Weighted>
-6.1189

> <Gold.Goldscore.External.Vdw.Weighted>
74.8058

> <Gold.Goldscore.Internal.HBond.Weighted>
0.0000

> <Gold.Goldscore.External.HBond.Weighted>
4.9309

> <Gold.Goldscore.Internal.Correction.Weighted>
-9.2775

> <Gold.Protein.RotatedTorsions>
[ 3781 1176 1175 1172 ] final  158.57 input   60.00 | X-H torsion
[ 3847 1247 1246 1244 ] final  159.59 input   60.00 | X-H torsion
[ 4507 1931 1930 1928 ] final  127.23 input   60.00 | X-H torsion
[ 3677 1070 1069 1066 ] final  -81.30 input   60.00 | X-H torsion
[ 3525  925  924  922 ] final  -40.24 input   59.99 | X-H torsion
[ 4531 1957 1955 1953 ] final   13.67 input   60.00 | X-H torsion

> <Gold.Protein.ActiveResidues>
 PHE267  PRO268  MET310  ASP335  TRP336  MET339  TYR343  THR360  PRO361  ILE363 
 PRO371  SER374  ILE375  ASN378  PHE381  TYR383  GLN384  PHE387  LEU408  LEU417 
 MET419  LEU428  TYR466  MET469  ASN472  ASP496  VAL498  LEU499  MET503  HIS524 
 TRP525 

> <Gold.Protein.RotatedAtoms>
   -3.7713  -29.5266  -29.8558 H   0  0  0  0  0  0  0  0  0  0  0  0  # atno 3525 bound_to 925 
  -12.0136  -23.8366  -31.3268 H   0  0  0  0  0  0  0  0  0  0  0  0  # atno 3677 bound_to 1070
   -9.4031  -36.7069  -32.5973 H   0  0  0  0  0  0  0  0  0  0  0  0  # atno 3781 bound_to 1176
  -14.4543  -27.6952  -37.9389 H   0  0  0  0  0  0  0  0  0  0  0  0  # atno 3847 bound_to 1247
  -12.4675  -23.8793  -39.4590 H   0  0  0  0  0  0  0  0  0  0  0  0  # atno 4507 bound_to 1931
   -2.9847  -32.6821  -36.6679 H   0  0  0  0  0  0  0  0  0  0  0  0  # atno 4531 bound_to 1957
  -10.7741  -37.4366  -33.0829 LP  0  0  0  0  0  0  0  0  0  0  0  0  # atno 5205 bound_to 1176
   -9.9380  -36.4908  -34.1188 LP  0  0  0  0  0  0  0  0  0  0  0  0  # atno 5206 bound_to 1176
  -15.1363  -28.9646  -37.1829 LP  0  0  0  0  0  0  0  0  0  0  0  0  # atno 5215 bound_to 1247
  -15.9789  -27.5800  -37.3819 LP  0  0  0  0  0  0  0  0  0  0  0  0  # atno 5216 bound_to 1247
  -13.1821  -25.2693  -39.0057 LP  0  0  0  0  0  0  0  0  0  0  0  0  # atno 5217 bound_to 1931
  -13.5494  -24.5905  -40.4448 LP  0  0  0  0  0  0  0  0  0  0  0  0  # atno 5218 bound_to 1931
  -11.1712  -22.4891  -30.9766 LP  0  0  0  0  0  0  0  0  0  0  0  0  # atno 5224 bound_to 1070
  -12.6688  -22.7020  -30.3615 LP  0  0  0  0  0  0  0  0  0  0  0  0  # atno 5225 bound_to 1070

$$$$
EZ_19|Lisa_paper2_min|sdf|7|dock8
  -GOLD-  10182017 23D 1   1.00000     0.00000

 45 48  0  0  0  0  0  0  0  0  1 V2000
   -3.3377  -31.8775  -33.5311 C   0  0  0  0  0  0  0  0  0  0  0  0
   -3.0719  -30.6127  -33.0014 C   0  0  0  0  0  0  0  0  0  0  0  0
   -4.5187  -32.1289  -34.2407 C   0  0  0  0  0  0  0  0  0  0  0  0
   -3.9733  -29.5550  -33.1606 C   0  0  0  0  0  0  0  0  0  0  0  0
  -10.8701  -25.2485  -35.4445 C   0  0  0  0  0  0  0  0  0  0  0  0
  -11.6774  -27.1440  -36.7067 C   0  0  0  0  0  0  0  0  0  0  0  0
  -17.4798  -24.1017  -37.5658 C   0  0  0  0  0  0  0  0  0  0  0  0
   -9.6707  -25.9189  -35.2048 C   0  0  0  0  0  0  0  0  0  0  0  0
  -10.4780  -27.8143  -36.4670 C   0  0  0  0  0  0  0  0  0  0  0  0
  -18.6180  -23.9994  -38.3654 C   0  0  0  0  0  0  0  0  0  0  0  0
  -16.1560  -24.6284  -39.5169 C   0  0  0  0  0  0  0  0  0  0  0  0
   -5.4357  -31.0778  -34.4101 C   0  0  0  0  0  0  0  0  0  0  0  0
   -5.1429  -29.8284  -33.8708 C   0  0  0  0  0  0  0  0  0  0  0  0
  -11.8736  -25.8611  -36.1954 C   0  0  0  0  0  0  0  0  0  0  0  0
  -16.2488  -24.4161  -38.1415 C   0  0  0  0  0  0  0  0  0  0  0  0
   -9.4745  -27.2018  -35.7161 C   0  0  0  0  0  0  0  0  0  0  0  0
  -18.5252  -24.2116  -39.7409 C   0  0  0  0  0  0  0  0  0  0  0  0
  -17.2943  -24.5262  -40.3168 C   0  0  0  0  0  0  0  0  0  0  0  0
   -7.0929  -29.8297  -34.9159 C   0  0  0  0  0  0  0  0  0  0  0  0
  -14.0300  -25.4268  -37.4525 C   0  0  0  0  0  0  0  0  0  0  0  0
   -8.3630  -29.2848  -35.4306 C   0  0  0  0  0  0  0  0  0  0  0  0
   -6.6508  -31.0594  -35.0556 N   0  0  0  0  0  0  0  0  0  0  0  0
   -6.2199  -29.0500  -34.2095 N   0  0  0  0  0  0  0  0  0  0  0  0
  -13.0734  -25.1906  -36.4351 N   0  0  0  0  0  0  0  0  0  0  0  0
  -15.0943  -24.5193  -37.3300 N   0  0  0  0  0  0  0  0  0  0  0  0
  -13.9358  -26.2980  -38.3112 O   0  0  0  0  0  0  0  0  0  0  0  0
   -8.2985  -27.8592  -35.4811 O   0  0  0  0  0  0  0  0  0  0  0  0
  -19.9717  -24.0736  -40.6774 Cl  0  0  0  0  0  0  0  0  0  0  0  0
  -17.1160  -24.8024  -42.0141 Cl  0  0  0  0  0  0  0  0  0  0  0  0
   -2.6172  -32.6794  -33.3912 H   0  0  0  0  0  0  0  0  0  0  0  0
   -2.1474  -30.4467  -32.4536 H   0  0  0  0  0  0  0  0  0  0  0  0
   -4.7150  -33.1151  -34.6490 H   0  0  0  0  0  0  0  0  0  0  0  0
   -3.7683  -28.5725  -32.7512 H   0  0  0  0  0  0  0  0  0  0  0  0
  -11.0122  -24.2491  -35.0414 H   0  0  0  0  0  0  0  0  0  0  0  0
  -12.4523  -27.6311  -37.2930 H   0  0  0  0  0  0  0  0  0  0  0  0
  -17.5627  -23.9328  -36.4951 H   0  0  0  0  0  0  0  0  0  0  0  0
   -8.8928  -25.4365  -34.6193 H   0  0  0  0  0  0  0  0  0  0  0  0
  -10.3310  -28.8136  -36.8678 H   0  0  0  0  0  0  0  0  0  0  0  0
  -19.5687  -23.7520  -37.8999 H   0  0  0  0  0  0  0  0  0  0  0  0
  -15.1932  -24.8748  -39.9601 H   0  0  0  0  0  0  0  0  0  0  0  0
   -8.5923  -29.6501  -36.4477 H   0  0  0  0  0  0  0  0  0  0  0  0
   -9.2212  -29.5653  -34.7942 H   0  0  0  0  0  0  0  0  0  0  0  0
   -6.3430  -28.0732  -33.9775 H   0  0  0  0  0  0  0  0  0  0  0  0
  -13.2917  -24.4250  -35.7887 H   0  0  0  0  0  0  0  0  0  0  0  0
  -15.0341  -23.8507  -36.5661 H   0  0  0  0  0  0  0  0  0  0  0  0
  1  2  2  0  0  0  0
  1  3  1  0  0  0  0
  2  4  1  0  0  0  0
  3 12  2  0  0  0  0
  4 13  2  0  0  0  0
  5  8  1  0  0  0  0
  5 14  2  0  0  0  0
  6  9  2  0  0  0  0
  6 14  1  0  0  0  0
  7 10  1  0  0  0  0
  7 15  2  0  0  0  0
  8 16  2  0  0  0  0
  9 16  1  0  0  0  0
 10 17  2  0  0  0  0
 11 15  1  0  0  0  0
 11 18  2  0  0  0  0
 12 13  1  0  0  0  0
 12 22  1  0  0  0  0
 13 23  1  0  0  0  0
 14 24  1  0  0  0  0
 15 25  1  0  0  0  0
 16 27  1  0  0  0  0
 17 18  1  0  0  0  0
 17 28  1  0  0  0  0
 18 29  1  0  0  0  0
 19 21  1  0  0  0  0
 19 22  2  0  0  0  0
 19 23  1  0  0  0  0
 20 24  1  0  0  0  0
 20 25  1  0  0  0  0
 20 26  2  0  0  0  0
 21 27  1  0  0  0  0
  1 30  1  0  0  0  0
  2 31  1  0  0  0  0
  3 32  1  0  0  0  0
  4 33  1  0  0  0  0
  5 34  1  0  0  0  0
  6 35  1  0  0  0  0
  7 36  1  0  0  0  0
  8 37  1  0  0  0  0
  9 38  1  0  0  0  0
 10 39  1  0  0  0  0
 11 40  1  0  0  0  0
 21 41  1  0  0  0  0
 21 42  1  0  0  0  0
 23 43  1  0  0  0  0
 24 44  1  0  0  0  0
 25 45  1  0  0  0  0
M  END
> <Name>
EZ_19

> <SourceTag>
EZ_19

> <Activity_sEH>
10.5

> <Activity_FLAP>
0.6

> <Gold.Version>
5.2

> <Gold.Id.Protein>
6HGV|6HGV_protein|mol2

> <Gold.Goldscore.Fitness>
78.2942

> <Gold.Goldscore.Internal.Vdw>
-8.6284

> <Gold.Goldscore.Internal.Torsion>
-4.6788

> <Gold.Goldscore.External.Vdw>
55.2980

> <Gold.Goldscore.Internal.HBond>
0.0000

> <Gold.Goldscore.External.HBond>
6.6844

> <Gold.Goldscore.Internal.Correction>
-8.8822

> <Gold.Goldscore.Hbonds>
donor molecule, donor type, donor heavy atom, donor atom, acceptor molecule, acceptor atom, score
      L1  H    24    44       P1   853  0.69
      L1  H    25    45       P1   853  0.42

> <Gold.Goldscore.Internal.Vdw.Weighted>
-8.6284

> <Gold.Goldscore.Internal.Torsion.Weighted>
-4.6788

> <Gold.Goldscore.External.Vdw.Weighted>
76.0348

> <Gold.Goldscore.Internal.HBond.Weighted>
0.0000

> <Gold.Goldscore.External.HBond.Weighted>
6.6844

> <Gold.Goldscore.Internal.Correction.Weighted>
-8.8822

> <Gold.Protein.RotatedTorsions>
[ 3781 1176 1175 1172 ] final  -28.11 input   60.00 | X-H torsion
[ 3847 1247 1246 1244 ] final  -75.64 input   60.00 | X-H torsion
[ 4507 1931 1930 1928 ] final  127.84 input   60.00 | X-H torsion
[ 3677 1070 1069 1066 ] final  -96.77 input   60.00 | X-H torsion
[ 3525  925  924  922 ] final  -27.42 input   59.99 | X-H torsion
[ 4531 1957 1955 1953 ] final  -27.59 input   60.00 | X-H torsion

> <Gold.Protein.ActiveResidues>
 PHE267  PRO268  MET310  ASP335  TRP336  MET339  TYR343  THR360  PRO361  ILE363 
 PRO371  SER374  ILE375  ASN378  PHE381  TYR383  GLN384  PHE387  LEU408  LEU417 
 MET419  LEU428  TYR466  MET469  ASN472  ASP496  VAL498  LEU499  MET503  HIS524 
 TRP525 

> <Gold.Protein.RotatedAtoms>
   -3.7599  -29.5126  -30.0641 H   0  0  0  0  0  0  0  0  0  0  0  0  # atno 3525 bound_to 925 
  -11.7823  -23.7741  -31.4050 H   0  0  0  0  0  0  0  0  0  0  0  0  # atno 3677 bound_to 1070
  -10.6090  -36.9868  -33.9978 H   0  0  0  0  0  0  0  0  0  0  0  0  # atno 3781 bound_to 1176
  -16.0043  -27.6467  -37.3491 H   0  0  0  0  0  0  0  0  0  0  0  0  # atno 3847 bound_to 1247
  -12.4698  -23.8752  -39.4678 H   0  0  0  0  0  0  0  0  0  0  0  0  # atno 4507 bound_to 1931
   -2.4918  -32.2520  -36.7541 H   0  0  0  0  0  0  0  0  0  0  0  0  # atno 4531 bound_to 1957
   -9.2694  -36.3356  -33.3423 LP  0  0  0  0  0  0  0  0  0  0  0  0  # atno 5205 bound_to 1176
  -10.2283  -37.3099  -32.4490 LP  0  0  0  0  0  0  0  0  0  0  0  0  # atno 5206 bound_to 1176
  -14.4913  -27.6266  -37.9480 LP  0  0  0  0  0  0  0  0  0  0  0  0  # atno 5215 bound_to 1247
  -15.0630  -28.9669  -37.2108 LP  0  0  0  0  0  0  0  0  0  0  0  0  # atno 5216 bound_to 1247
  -13.1754  -25.2648  -38.9996 LP  0  0  0  0  0  0  0  0  0  0  0  0  # atno 5217 bound_to 1931
  -13.5538  -24.5991  -40.4420 LP  0  0  0  0  0  0  0  0  0  0  0  0  # atno 5218 bound_to 1931
  -11.3002  -22.3325  -30.8240 LP  0  0  0  0  0  0  0  0  0  0  0  0  # atno 5224 bound_to 1070
  -12.7728  -22.9215  -30.4354 LP  0  0  0  0  0  0  0  0  0  0  0  0  # atno 5225 bound_to 1070

$$$$
EZ_19|Lisa_paper2_min|sdf|7|dock6
  -GOLD-  10182017 23D 1   1.00000     0.00000

 45 48  0  0  0  0  0  0  0  0  1 V2000
   -3.4176  -31.6945  -33.0463 C   0  0  0  0  0  0  0  0  0  0  0  0
   -2.9744  -30.3841  -32.8528 C   0  0  0  0  0  0  0  0  0  0  0  0
   -4.6642  -31.9558  -33.6288 C   0  0  0  0  0  0  0  0  0  0  0  0
   -3.7576  -29.2894  -33.2330 C   0  0  0  0  0  0  0  0  0  0  0  0
  -10.9341  -25.0731  -35.1992 C   0  0  0  0  0  0  0  0  0  0  0  0
  -11.6125  -26.9890  -36.5056 C   0  0  0  0  0  0  0  0  0  0  0  0
  -17.4297  -24.0156  -37.6910 C   0  0  0  0  0  0  0  0  0  0  0  0
   -9.7317  -25.7090  -34.8908 C   0  0  0  0  0  0  0  0  0  0  0  0
  -10.4099  -27.6249  -36.1972 C   0  0  0  0  0  0  0  0  0  0  0  0
  -18.5309  -23.9559  -38.5450 C   0  0  0  0  0  0  0  0  0  0  0  0
  -16.0440  -24.7499  -39.5287 C   0  0  0  0  0  0  0  0  0  0  0  0
   -5.4643  -30.8678  -34.0166 C   0  0  0  0  0  0  0  0  0  0  0  0
   -4.9954  -29.5734  -33.8110 C   0  0  0  0  0  0  0  0  0  0  0  0
  -11.8746  -25.7130  -36.0066 C   0  0  0  0  0  0  0  0  0  0  0  0
  -16.1862  -24.4125  -38.1828 C   0  0  0  0  0  0  0  0  0  0  0  0
   -9.4695  -26.9849  -35.3898 C   0  0  0  0  0  0  0  0  0  0  0  0
  -18.3886  -24.2933  -39.8909 C   0  0  0  0  0  0  0  0  0  0  0  0
  -17.1452  -24.6903  -40.3829 C   0  0  0  0  0  0  0  0  0  0  0  0
   -6.9979  -29.5763  -34.7514 C   0  0  0  0  0  0  0  0  0  0  0  0
  -13.9789  -25.3552  -37.3714 C   0  0  0  0  0  0  0  0  0  0  0  0
   -8.2288  -29.0131  -35.3368 C   0  0  0  0  0  0  0  0  0  0  0  0
   -6.7096  -30.8497  -34.6018 N   0  0  0  0  0  0  0  0  0  0  0  0
   -5.9964  -28.7680  -34.2902 N   0  0  0  0  0  0  0  0  0  0  0  0
  -13.0775  -25.0771  -36.3150 N   0  0  0  0  0  0  0  0  0  0  0  0
  -15.0694  -24.4723  -37.3162 N   0  0  0  0  0  0  0  0  0  0  0  0
  -13.8233  -26.2390  -38.2079 O   0  0  0  0  0  0  0  0  0  0  0  0
   -8.2905  -27.6085  -35.0875 O   0  0  0  0  0  0  0  0  0  0  0  0
  -19.7910  -24.2024  -40.8975 Cl  0  0  0  0  0  0  0  0  0  0  0  0
  -16.9063  -25.1226  -42.0396 Cl  0  0  0  0  0  0  0  0  0  0  0  0
   -2.7858  -32.5247  -32.7408 H   0  0  0  0  0  0  0  0  0  0  0  0
   -2.0026  -30.2111  -32.3968 H   0  0  0  0  0  0  0  0  0  0  0  0
   -4.9987  -32.9778  -33.7755 H   0  0  0  0  0  0  0  0  0  0  0  0
   -3.4147  -28.2718  -33.0845 H   0  0  0  0  0  0  0  0  0  0  0  0
  -11.1280  -24.0787  -34.8049 H   0  0  0  0  0  0  0  0  0  0  0  0
  -12.3379  -27.4973  -37.1355 H   0  0  0  0  0  0  0  0  0  0  0  0
  -17.5511  -23.7490  -36.6441 H   0  0  0  0  0  0  0  0  0  0  0  0
   -9.0030  -25.2053  -34.2615 H   0  0  0  0  0  0  0  0  0  0  0  0
  -10.2114  -28.6188  -36.5888 H   0  0  0  0  0  0  0  0  0  0  0  0
  -19.4919  -23.6429  -38.1448 H   0  0  0  0  0  0  0  0  0  0  0  0
  -15.0717  -25.0602  -39.9063 H   0  0  0  0  0  0  0  0  0  0  0  0
   -8.2791  -29.1660  -36.4299 H   0  0  0  0  0  0  0  0  0  0  0  0
   -9.1377  -29.4754  -34.9120 H   0  0  0  0  0  0  0  0  0  0  0  0
   -5.9914  -27.7566  -34.3002 H   0  0  0  0  0  0  0  0  0  0  0  0
  -13.3445  -24.3056  -35.6942 H   0  0  0  0  0  0  0  0  0  0  0  0
  -15.0614  -23.7889  -36.5633 H   0  0  0  0  0  0  0  0  0  0  0  0
  1  2  2  0  0  0  0
  1  3  1  0  0  0  0
  2  4  1  0  0  0  0
  3 12  2  0  0  0  0
  4 13  2  0  0  0  0
  5  8  1  0  0  0  0
  5 14  2  0  0  0  0
  6  9  2  0  0  0  0
  6 14  1  0  0  0  0
  7 10  1  0  0  0  0
  7 15  2  0  0  0  0
  8 16  2  0  0  0  0
  9 16  1  0  0  0  0
 10 17  2  0  0  0  0
 11 15  1  0  0  0  0
 11 18  2  0  0  0  0
 12 13  1  0  0  0  0
 12 22  1  0  0  0  0
 13 23  1  0  0  0  0
 14 24  1  0  0  0  0
 15 25  1  0  0  0  0
 16 27  1  0  0  0  0
 17 18  1  0  0  0  0
 17 28  1  0  0  0  0
 18 29  1  0  0  0  0
 19 21  1  0  0  0  0
 19 22  2  0  0  0  0
 19 23  1  0  0  0  0
 20 24  1  0  0  0  0
 20 25  1  0  0  0  0
 20 26  2  0  0  0  0
 21 27  1  0  0  0  0
  1 30  1  0  0  0  0
  2 31  1  0  0  0  0
  3 32  1  0  0  0  0
  4 33  1  0  0  0  0
  5 34  1  0  0  0  0
  6 35  1  0  0  0  0
  7 36  1  0  0  0  0
  8 37  1  0  0  0  0
  9 38  1  0  0  0  0
 10 39  1  0  0  0  0
 11 40  1  0  0  0  0
 21 41  1  0  0  0  0
 21 42  1  0  0  0  0
 23 43  1  0  0  0  0
 24 44  1  0  0  0  0
 25 45  1  0  0  0  0
M  END
> <Name>
EZ_19

> <SourceTag>
EZ_19

> <Activity_sEH>
10.5

> <Activity_FLAP>
0.6

> <Gold.Version>
5.2

> <Gold.Id.Protein>
6HGV|6HGV_protein|mol2

> <Gold.Goldscore.Fitness>
77.4264

> <Gold.Goldscore.Internal.Vdw>
-10.7843

> <Gold.Goldscore.Internal.Torsion>
-3.5904

> <Gold.Goldscore.External.Vdw>
56.0941

> <Gold.Goldscore.Internal.HBond>
0.0000

> <Gold.Goldscore.External.HBond>
5.7895

> <Gold.Goldscore.Internal.Correction>
-8.8822

> <Gold.Goldscore.Hbonds>
donor molecule, donor type, donor heavy atom, donor atom, acceptor molecule, acceptor atom, score
      L1  H    24    44       P1   853  0.66
      L1  H    25    45       P1   853  0.31

> <Gold.Goldscore.Internal.Vdw.Weighted>
-10.7843

> <Gold.Goldscore.Internal.Torsion.Weighted>
-3.5904

> <Gold.Goldscore.External.Vdw.Weighted>
77.1293

> <Gold.Goldscore.Internal.HBond.Weighted>
0.0000

> <Gold.Goldscore.External.HBond.Weighted>
5.7895

> <Gold.Goldscore.Internal.Correction.Weighted>
-8.8822

> <Gold.Protein.RotatedTorsions>
[ 3781 1176 1175 1172 ] final  143.00 input   60.00 | X-H torsion
[ 3847 1247 1246 1244 ] final  -95.19 input   60.00 | X-H torsion
[ 4507 1931 1930 1928 ] final  122.18 input   60.00 | X-H torsion
[ 3677 1070 1069 1066 ] final -106.16 input   60.00 | X-H torsion
[ 3525  925  924  922 ] final  -19.57 input   59.99 | X-H torsion
[ 4531 1957 1955 1953 ] final   11.59 input   60.00 | X-H torsion

> <Gold.Protein.ActiveResidues>
 PHE267  PRO268  MET310  ASP335  TRP336  MET339  TYR343  THR360  PRO361  ILE363 
 PRO371  SER374  ILE375  ASN378  PHE381  TYR383  GLN384  PHE387  LEU408  LEU417 
 MET419  LEU428  TYR466  MET469  ASN472  ASP496  VAL498  LEU499  MET503  HIS524 
 TRP525 

> <Gold.Protein.RotatedAtoms>
   -3.7319  -29.5133  -30.1891 H   0  0  0  0  0  0  0  0  0  0  0  0  # atno 3525 bound_to 925 
  -11.6467  -23.7088  -31.4344 H   0  0  0  0  0  0  0  0  0  0  0  0  # atno 3677 bound_to 1070
   -9.5550  -36.8587  -32.4624 H   0  0  0  0  0  0  0  0  0  0  0  0  # atno 3781 bound_to 1176
  -15.8476  -27.4145  -37.4995 H   0  0  0  0  0  0  0  0  0  0  0  0  # atno 3847 bound_to 1247
  -12.4513  -23.9163  -39.3871 H   0  0  0  0  0  0  0  0  0  0  0  0  # atno 4507 bound_to 1931
   -2.9680  -32.6526  -36.6705 H   0  0  0  0  0  0  0  0  0  0  0  0  # atno 4531 bound_to 1957
  -10.8304  -37.3831  -33.3263 LP  0  0  0  0  0  0  0  0  0  0  0  0  # atno 5205 bound_to 1176
   -9.7287  -36.3914  -34.0114 LP  0  0  0  0  0  0  0  0  0  0  0  0  # atno 5206 bound_to 1176
  -14.3487  -27.9085  -37.8961 LP  0  0  0  0  0  0  0  0  0  0  0  0  # atno 5215 bound_to 1247
  -15.3635  -28.9188  -37.1113 LP  0  0  0  0  0  0  0  0  0  0  0  0  # atno 5216 bound_to 1247
  -13.2368  -25.3030  -39.0583 LP  0  0  0  0  0  0  0  0  0  0  0  0  # atno 5217 bound_to 1931
  -13.5111  -24.5195  -40.4646 LP  0  0  0  0  0  0  0  0  0  0  0  0  # atno 5218 bound_to 1931
  -11.4022  -22.2609  -30.7330 LP  0  0  0  0  0  0  0  0  0  0  0  0  # atno 5224 bound_to 1070
  -12.8072  -23.0589  -30.4968 LP  0  0  0  0  0  0  0  0  0  0  0  0  # atno 5225 bound_to 1070

$$$$
EZ_19|Lisa_paper2_min|sdf|7|dock4
  -GOLD-  10182017 13D 1   1.00000     0.00000

 45 48  0  0  0  0  0  0  0  0  1 V2000
   -2.7899  -31.2260  -32.9296 C   0  0  0  0  0  0  0  0  0  0  0  0
   -3.2454  -32.4623  -33.3933 C   0  0  0  0  0  0  0  0  0  0  0  0
   -3.5428  -30.0610  -33.1229 C   0  0  0  0  0  0  0  0  0  0  0  0
   -4.4665  -32.5804  -34.0651 C   0  0  0  0  0  0  0  0  0  0  0  0
  -10.5388  -25.2493  -35.0223 C   0  0  0  0  0  0  0  0  0  0  0  0
  -11.1366  -27.0316  -36.5399 C   0  0  0  0  0  0  0  0  0  0  0  0
  -16.6138  -25.1904  -37.7582 C   0  0  0  0  0  0  0  0  0  0  0  0
   -9.5015  -26.0306  -34.5132 C   0  0  0  0  0  0  0  0  0  0  0  0
  -10.0993  -27.8129  -36.0309 C   0  0  0  0  0  0  0  0  0  0  0  0
  -17.8689  -25.1734  -38.3665 C   0  0  0  0  0  0  0  0  0  0  0  0
  -15.9345  -23.3044  -39.1067 C   0  0  0  0  0  0  0  0  0  0  0  0
   -4.7721  -30.1611  -33.7961 C   0  0  0  0  0  0  0  0  0  0  0  0
   -5.1995  -31.4071  -34.2464 C   0  0  0  0  0  0  0  0  0  0  0  0
  -11.3564  -25.7498  -36.0356 C   0  0  0  0  0  0  0  0  0  0  0  0
  -15.6467  -24.2558  -38.1283 C   0  0  0  0  0  0  0  0  0  0  0  0
   -9.2816  -27.3124  -35.0176 C   0  0  0  0  0  0  0  0  0  0  0  0
  -18.1568  -24.2219  -39.3450 C   0  0  0  0  0  0  0  0  0  0  0  0
  -17.1897  -23.2873  -39.7151 C   0  0  0  0  0  0  0  0  0  0  0  0
   -6.6568  -29.8170  -34.7390 C   0  0  0  0  0  0  0  0  0  0  0  0
  -13.6117  -25.3901  -37.1326 C   0  0  0  0  0  0  0  0  0  0  0  0
   -7.8889  -29.2210  -35.2883 C   0  0  0  0  0  0  0  0  0  0  0  0
   -5.6902  -29.1858  -34.1111 N   0  0  0  0  0  0  0  0  0  0  0  0
   -6.4074  -31.1570  -34.8454 N   0  0  0  0  0  0  0  0  0  0  0  0
  -12.3941  -24.9685  -36.5447 N   0  0  0  0  0  0  0  0  0  0  0  0
  -14.3739  -24.2731  -37.5105 N   0  0  0  0  0  0  0  0  0  0  0  0
  -13.9446  -26.5610  -37.2858 O   0  0  0  0  0  0  0  0  0  0  0  0
   -8.2646  -28.0785  -34.5186 O   0  0  0  0  0  0  0  0  0  0  0  0
  -19.7286  -24.2545  -40.0636 Cl  0  0  0  0  0  0  0  0  0  0  0  0
  -17.4857  -22.0855  -40.9221 Cl  0  0  0  0  0  0  0  0  0  0  0  0
   -1.8366  -31.1664  -32.4103 H   0  0  0  0  0  0  0  0  0  0  0  0
   -2.6391  -33.3501  -33.2303 H   0  0  0  0  0  0  0  0  0  0  0  0
   -3.1801  -29.1055  -32.7578 H   0  0  0  0  0  0  0  0  0  0  0  0
   -4.8221  -33.5392  -34.4247 H   0  0  0  0  0  0  0  0  0  0  0  0
  -10.7010  -24.2518  -34.6219 H   0  0  0  0  0  0  0  0  0  0  0  0
  -11.7675  -27.4321  -37.3294 H   0  0  0  0  0  0  0  0  0  0  0  0
  -16.4003  -25.9351  -36.9957 H   0  0  0  0  0  0  0  0  0  0  0  0
   -8.8679  -25.6351  -33.7240 H   0  0  0  0  0  0  0  0  0  0  0  0
   -9.9330  -28.8107  -36.4277 H   0  0  0  0  0  0  0  0  0  0  0  0
  -18.6109  -25.9082  -38.0646 H   0  0  0  0  0  0  0  0  0  0  0  0
  -15.1755  -22.5787  -39.3922 H   0  0  0  0  0  0  0  0  0  0  0  0
   -7.7643  -28.8972  -36.3372 H   0  0  0  0  0  0  0  0  0  0  0  0
   -8.7334  -29.9331  -35.2766 H   0  0  0  0  0  0  0  0  0  0  0  0
   -7.0054  -31.8438  -35.2857 H   0  0  0  0  0  0  0  0  0  0  0  0
  -12.2570  -23.9539  -36.4854 H   0  0  0  0  0  0  0  0  0  0  0  0
  -13.9664  -23.3611  -37.3200 H   0  0  0  0  0  0  0  0  0  0  0  0
  1  2  2  0  0  0  0
  1  3  1  0  0  0  0
  2  4  1  0  0  0  0
  3 12  2  0  0  0  0
  4 13  2  0  0  0  0
  5  8  1  0  0  0  0
  5 14  2  0  0  0  0
  6  9  2  0  0  0  0
  6 14  1  0  0  0  0
  7 10  1  0  0  0  0
  7 15  2  0  0  0  0
  8 16  2  0  0  0  0
  9 16  1  0  0  0  0
 10 17  2  0  0  0  0
 11 15  1  0  0  0  0
 11 18  2  0  0  0  0
 12 13  1  0  0  0  0
 12 22  1  0  0  0  0
 13 23  1  0  0  0  0
 14 24  1  0  0  0  0
 15 25  1  0  0  0  0
 16 27  1  0  0  0  0
 17 18  1  0  0  0  0
 17 28  1  0  0  0  0
 18 29  1  0  0  0  0
 19 21  1  0  0  0  0
 19 22  2  0  0  0  0
 19 23  1  0  0  0  0
 20 24  1  0  0  0  0
 20 25  1  0  0  0  0
 20 26  2  0  0  0  0
 21 27  1  0  0  0  0
  1 30  1  0  0  0  0
  2 31  1  0  0  0  0
  3 32  1  0  0  0  0
  4 33  1  0  0  0  0
  5 34  1  0  0  0  0
  6 35  1  0  0  0  0
  7 36  1  0  0  0  0
  8 37  1  0  0  0  0
  9 38  1  0  0  0  0
 10 39  1  0  0  0  0
 11 40  1  0  0  0  0
 21 41  1  0  0  0  0
 21 42  1  0  0  0  0
 23 43  1  0  0  0  0
 24 44  1  0  0  0  0
 25 45  1  0  0  0  0
M  END
> <Name>
EZ_19

> <SourceTag>
EZ_19

> <Activity_sEH>
10.5

> <Activity_FLAP>
0.6

> <Gold.Version>
5.2

> <Gold.Id.Protein>
6HGV|6HGV_protein|mol2

> <Gold.Goldscore.Fitness>
77.1186

> <Gold.Goldscore.Internal.Vdw>
-8.7905

> <Gold.Goldscore.Internal.Torsion>
-4.8526

> <Gold.Goldscore.External.Vdw>
55.4990

> <Gold.Goldscore.Internal.HBond>
0.0000

> <Gold.Goldscore.External.HBond>
5.4941

> <Gold.Goldscore.Internal.Correction>
-8.9565

> <Gold.Goldscore.Hbonds>
donor molecule, donor type, donor heavy atom, donor atom, acceptor molecule, acceptor atom, score
      P1  H  1247  3847       L1    26  0.16
      L1  H    24    44       P1   854  0.44
      L1  H    25    45       P1   854  0.43

> <Gold.Goldscore.Internal.Vdw.Weighted>
-8.7905

> <Gold.Goldscore.Internal.Torsion.Weighted>
-4.8526

> <Gold.Goldscore.External.Vdw.Weighted>
76.3111

> <Gold.Goldscore.Internal.HBond.Weighted>
0.0000

> <Gold.Goldscore.External.HBond.Weighted>
5.4941

> <Gold.Goldscore.Internal.Correction.Weighted>
-8.9565

> <Gold.Protein.RotatedTorsions>
[ 3781 1176 1175 1172 ] final  -48.97 input   60.00 | X-H torsion
[ 3847 1247 1246 1244 ] final  168.48 input   60.00 | X-H torsion
[ 4507 1931 1930 1928 ] final  -98.14 input   60.00 | X-H torsion
[ 3677 1070 1069 1066 ] final -151.59 input   60.00 | X-H torsion
[ 3525  925  924  922 ] final  -31.30 input   59.99 | X-H torsion
[ 4531 1957 1955 1953 ] final    6.50 input   60.00 | X-H torsion

> <Gold.Protein.ActiveResidues>
 PHE267  PRO268  MET310  ASP335  TRP336  MET339  TYR343  THR360  PRO361  ILE363 
 PRO371  SER374  ILE375  ASN378  PHE381  TYR383  GLN384  PHE387  LEU408  LEU417 
 MET419  LEU428  TYR466  MET469  ASN472  ASP496  VAL498  LEU499  MET503  HIS524 
 TRP525 

> <Gold.Protein.RotatedAtoms>
   -3.7679  -29.5149  -30.0013 H   0  0  0  0  0  0  0  0  0  0  0  0  # atno 3525 bound_to 925 
  -11.1636  -23.1750  -31.3680 H   0  0  0  0  0  0  0  0  0  0  0  0  # atno 3677 bound_to 1070
  -10.3756  -36.7808  -34.1322 H   0  0  0  0  0  0  0  0  0  0  0  0  # atno 3781 bound_to 1176
  -14.5378  -27.5772  -37.9513 H   0  0  0  0  0  0  0  0  0  0  0  0  # atno 3847 bound_to 1247
  -13.6325  -24.7933  -40.3488 H   0  0  0  0  0  0  0  0  0  0  0  0  # atno 4507 bound_to 1931
   -2.9229  -32.5831  -36.6779 H   0  0  0  0  0  0  0  0  0  0  0  0  # atno 4531 bound_to 1957
   -9.2404  -36.4378  -33.0178 LP  0  0  0  0  0  0  0  0  0  0  0  0  # atno 5205 bound_to 1176
  -10.4923  -37.4152  -32.6382 LP  0  0  0  0  0  0  0  0  0  0  0  0  # atno 5206 bound_to 1176
  -15.0004  -28.9639  -37.2365 LP  0  0  0  0  0  0  0  0  0  0  0  0  # atno 5215 bound_to 1247
  -16.0308  -27.6995  -37.3158 LP  0  0  0  0  0  0  0  0  0  0  0  0  # atno 5216 bound_to 1247
  -12.5380  -23.7970  -39.6723 LP  0  0  0  0  0  0  0  0  0  0  0  0  # atno 5217 bound_to 1931
  -13.0202  -25.1422  -38.8820 LP  0  0  0  0  0  0  0  0  0  0  0  0  # atno 5218 bound_to 1931
  -12.0439  -22.2157  -30.3918 LP  0  0  0  0  0  0  0  0  0  0  0  0  # atno 5224 bound_to 1070
  -12.6522  -23.6416  -30.9048 LP  0  0  0  0  0  0  0  0  0  0  0  0  # atno 5225 bound_to 1070

$$$$
EZ_20|Lisa_paper2_min|sdf|8|dock7
  -GOLD-  10182017 53D 1   1.00000     0.00000

 60 63  0  0  0  0  0  0  0  0  1 V2000
   -3.4078  -29.4079  -33.0487 C   0  0  0  0  0  0  0  0  0  0  0  0
   -3.7218  -30.7616  -33.1495 C   0  0  0  0  0  0  0  0  0  0  0  0
   -4.3070  -28.4318  -33.4879 C   0  0  0  0  0  0  0  0  0  0  0  0
   -4.9410  -31.1845  -33.6906 C   0  0  0  0  0  0  0  0  0  0  0  0
  -12.2219  -26.7013  -36.8996 C   0  0  0  0  0  0  0  0  0  0  0  0
  -11.6872  -24.7678  -35.5531 C   0  0  0  0  0  0  0  0  0  0  0  0
  -18.0978  -25.0570  -35.4310 C   0  0  0  0  0  0  0  0  0  0  0  0
  -10.9715  -27.2480  -36.6112 C   0  0  0  0  0  0  0  0  0  0  0  0
  -10.4368  -25.3146  -35.2647 C   0  0  0  0  0  0  0  0  0  0  0  0
  -19.4813  -25.1497  -35.2801 C   0  0  0  0  0  0  0  0  0  0  0  0
  -18.3982  -24.2398  -37.6846 C   0  0  0  0  0  0  0  0  0  0  0  0
   -5.5368  -28.8394  -34.0346 C   0  0  0  0  0  0  0  0  0  0  0  0
   -5.8372  -30.1989  -34.1288 C   0  0  0  0  0  0  0  0  0  0  0  0
  -12.5798  -25.4612  -36.3706 C   0  0  0  0  0  0  0  0  0  0  0  0
  -17.5562  -24.6020  -36.6332 C   0  0  0  0  0  0  0  0  0  0  0  0
  -10.0790  -26.5547  -35.7936 C   0  0  0  0  0  0  0  0  0  0  0  0
  -20.3234  -24.7875  -36.3315 C   0  0  0  0  0  0  0  0  0  0  0  0
  -19.7818  -24.3326  -37.5338 C   0  0  0  0  0  0  0  0  0  0  0  0
   -7.4729  -28.9338  -34.9123 C   0  0  0  0  0  0  0  0  0  0  0  0
   -7.8504  -31.3898  -35.0068 C   0  0  0  0  0  0  0  0  0  0  0  0
  -15.1288  -25.3100  -36.3109 C   0  0  0  0  0  0  0  0  0  0  0  0
   -9.2095  -33.7147  -34.3448 C   0  0  0  0  0  0  0  0  0  0  0  0
   -7.8878  -33.8659  -36.4755 C   0  0  0  0  0  0  0  0  0  0  0  0
   -6.9797  -34.8818  -34.3657 C   0  0  0  0  0  0  0  0  0  0  0  0
   -8.7607  -28.5138  -35.5113 C   0  0  0  0  0  0  0  0  0  0  0  0
   -7.8090  -33.7420  -34.9553 C   0  0  0  0  0  0  0  0  0  0  0  0
   -6.5607  -28.0744  -34.5245 N   0  0  0  0  0  0  0  0  0  0  0  0
   -7.1023  -30.2470  -34.7023 N   0  0  0  0  0  0  0  0  0  0  0  0
  -13.8304  -24.9142  -36.6591 N   0  0  0  0  0  0  0  0  0  0  0  0
  -16.1501  -24.5073  -36.7858 N   0  0  0  0  0  0  0  0  0  0  0  0
   -8.9576  -31.3086  -35.5126 O   0  0  0  0  0  0  0  0  0  0  0  0
   -8.8521  -27.0910  -35.5106 O   0  0  0  0  0  0  0  0  0  0  0  0
   -7.1582  -32.5034  -34.6571 O   0  0  0  0  0  0  0  0  0  0  0  0
  -15.2827  -26.6134  -35.2535 S   0  0  0  0  0  0  0  0  0  0  0  0
  -22.0284  -24.9278  -36.0840 Cl  0  0  0  0  0  0  0  0  0  0  0  0
  -20.7727  -23.8713  -38.8733 Cl  0  0  0  0  0  0  0  0  0  0  0  0
   -2.4540  -29.1061  -32.6245 H   0  0  0  0  0  0  0  0  0  0  0  0
   -3.0073  -31.5039  -32.8022 H   0  0  0  0  0  0  0  0  0  0  0  0
   -4.0554  -27.3789  -33.4066 H   0  0  0  0  0  0  0  0  0  0  0  0
   -5.1610  -32.2434  -33.7580 H   0  0  0  0  0  0  0  0  0  0  0  0
  -12.9097  -27.2504  -37.5377 H   0  0  0  0  0  0  0  0  0  0  0  0
  -11.9553  -23.8007  -35.1354 H   0  0  0  0  0  0  0  0  0  0  0  0
  -17.4506  -25.3402  -34.6048 H   0  0  0  0  0  0  0  0  0  0  0  0
  -10.6986  -28.2144  -37.0262 H   0  0  0  0  0  0  0  0  0  0  0  0
   -9.7458  -24.7696  -34.6273 H   0  0  0  0  0  0  0  0  0  0  0  0
  -19.8859  -25.5049  -34.3356 H   0  0  0  0  0  0  0  0  0  0  0  0
  -17.9697  -23.8869  -38.6206 H   0  0  0  0  0  0  0  0  0  0  0  0
   -9.2212  -33.1222  -33.4230 H   0  0  0  0  0  0  0  0  0  0  0  0
   -9.9439  -33.2929  -35.0387 H   0  0  0  0  0  0  0  0  0  0  0  0
   -9.5350  -34.7240  -34.0676 H   0  0  0  0  0  0  0  0  0  0  0  0
   -6.9258  -33.6164  -36.9376 H   0  0  0  0  0  0  0  0  0  0  0  0
   -8.6199  -33.1617  -36.8870 H   0  0  0  0  0  0  0  0  0  0  0  0
   -8.1687  -34.8780  -36.7843 H   0  0  0  0  0  0  0  0  0  0  0  0
   -6.9415  -34.8128  -33.2725 H   0  0  0  0  0  0  0  0  0  0  0  0
   -7.3896  -35.8604  -34.6360 H   0  0  0  0  0  0  0  0  0  0  0  0
   -5.9422  -34.8302  -34.7152 H   0  0  0  0  0  0  0  0  0  0  0  0
   -8.8639  -28.8642  -36.5515 H   0  0  0  0  0  0  0  0  0  0  0  0
   -9.6207  -28.9158  -34.9510 H   0  0  0  0  0  0  0  0  0  0  0  0
  -13.8166  -24.0427  -37.2027 H   0  0  0  0  0  0  0  0  0  0  0  0
  -15.8425  -23.6521  -37.2422 H   0  0  0  0  0  0  0  0  0  0  0  0
  1  2  2  0  0  0  0
  1  3  1  0  0  0  0
  2  4  1  0  0  0  0
  3 12  2  0  0  0  0
  4 13  2  0  0  0  0
  5  8  1  0  0  0  0
  5 14  2  0  0  0  0
  6  9  2  0  0  0  0
  6 14  1  0  0  0  0
  7 10  1  0  0  0  0
  7 15  2  0  0  0  0
  8 16  2  0  0  0  0
  9 16  1  0  0  0  0
 10 17  2  0  0  0  0
 11 15  1  0  0  0  0
 11 18  2  0  0  0  0
 12 13  1  0  0  0  0
 12 27  1  0  0  0  0
 13 28  1  0  0  0  0
 14 29  1  0  0  0  0
 15 30  1  0  0  0  0
 16 32  1  0  0  0  0
 17 18  1  0  0  0  0
 17 35  1  0  0  0  0
 18 36  1  0  0  0  0
 19 25  1  0  0  0  0
 19 27  2  0  0  0  0
 19 28  1  0  0  0  0
 20 28  1  0  0  0  0
 20 31  2  0  0  0  0
 20 33  1  0  0  0  0
 21 29  1  0  0  0  0
 21 30  1  0  0  0  0
 21 34  2  0  0  0  0
 22 26  1  0  0  0  0
 23 26  1  0  0  0  0
 24 26  1  0  0  0  0
 25 32  1  0  0  0  0
 26 33  1  0  0  0  0
  1 37  1  0  0  0  0
  2 38  1  0  0  0  0
  3 39  1  0  0  0  0
  4 40  1  0  0  0  0
  5 41  1  0  0  0  0
  6 42  1  0  0  0  0
  7 43  1  0  0  0  0
  8 44  1  0  0  0  0
  9 45  1  0  0  0  0
 10 46  1  0  0  0  0
 11 47  1  0  0  0  0
 22 48  1  0  0  0  0
 22 49  1  0  0  0  0
 22 50  1  0  0  0  0
 23 51  1  0  0  0  0
 23 52  1  0  0  0  0
 23 53  1  0  0  0  0
 24 54  1  0  0  0  0
 24 55  1  0  0  0  0
 24 56  1  0  0  0  0
 25 57  1  0  0  0  0
 25 58  1  0  0  0  0
 29 59  1  0  0  0  0
 30 60  1  0  0  0  0
M  END
> <Name>
EZ_20

> <SourceTag>
EZ_20

> <Activity_FLAP>
100

> <Activity_sEH>
19.1

> <Gold.Version>
5.2

> <Gold.Id.Protein>
6HGV|6HGV_protein|mol2

> <Gold.Goldscore.Fitness>
95.3935

> <Gold.Goldscore.Internal.Vdw>
-10.9187

> <Gold.Goldscore.Internal.Torsion>
-11.3799

> <Gold.Goldscore.External.Vdw>
71.7841

> <Gold.Goldscore.Internal.HBond>
0.0000

> <Gold.Goldscore.External.HBond>
0.0000

> <Gold.Goldscore.Internal.Correction>
-18.9890

> <Gold.Goldscore.Internal.Vdw.Weighted>
-10.9187

> <Gold.Goldscore.Internal.Torsion.Weighted>
-11.3799

> <Gold.Goldscore.External.Vdw.Weighted>
98.7031

> <Gold.Goldscore.Internal.HBond.Weighted>
0.0000

> <Gold.Goldscore.External.HBond.Weighted>
0.0000

> <Gold.Goldscore.Internal.Correction.Weighted>
-18.9890

> <Gold.Protein.RotatedTorsions>
[ 3781 1176 1175 1172 ] final  158.54 input   60.00 | X-H torsion
[ 3847 1247 1246 1244 ] final   60.59 input   60.00 | X-H torsion
[ 4507 1931 1930 1928 ] final  -31.55 input   60.00 | X-H torsion
[ 3677 1070 1069 1066 ] final  -77.48 input   60.00 | X-H torsion
[ 3525  925  924  922 ] final  -22.13 input   59.99 | X-H torsion
[ 4531 1957 1955 1953 ] final   -3.95 input   60.00 | X-H torsion

> <Gold.Protein.ActiveResidues>
 PHE267  PRO268  MET310  ASP335  TRP336  MET339  TYR343  THR360  PRO361  ILE363 
 PRO371  SER374  ILE375  ASN378  PHE381  TYR383  GLN384  PHE387  LEU408  LEU417 
 MET419  LEU428  TYR466  MET469  ASN472  ASP496  VAL498  LEU499  MET503  HIS524 
 TRP525 

> <Gold.Protein.RotatedAtoms>
   -3.7427  -29.5123  -30.1488 H   0  0  0  0  0  0  0  0  0  0  0  0  # atno 3525 bound_to 925 
  -12.0706  -23.8429  -31.3024 H   0  0  0  0  0  0  0  0  0  0  0  0  # atno 3677 bound_to 1070
   -9.4034  -36.7072  -32.5969 H   0  0  0  0  0  0  0  0  0  0  0  0  # atno 3781 bound_to 1176
  -14.8264  -28.9237  -37.3229 H   0  0  0  0  0  0  0  0  0  0  0  0  # atno 3847 bound_to 1247
  -13.5434  -25.3718  -39.5039 H   0  0  0  0  0  0  0  0  0  0  0  0  # atno 4507 bound_to 1931
   -2.8124  -32.4545  -36.6967 H   0  0  0  0  0  0  0  0  0  0  0  0  # atno 4531 bound_to 1957
  -10.7743  -37.4365  -33.0835 LP  0  0  0  0  0  0  0  0  0  0  0  0  # atno 5205 bound_to 1176
   -9.9375  -36.4905  -34.1187 LP  0  0  0  0  0  0  0  0  0  0  0  0  # atno 5206 bound_to 1176
  -16.0687  -27.8765  -37.2332 LP  0  0  0  0  0  0  0  0  0  0  0  0  # atno 5215 bound_to 1247
  -14.6718  -27.4309  -37.9520 LP  0  0  0  0  0  0  0  0  0  0  0  0  # atno 5216 bound_to 1247
  -13.1834  -24.0828  -40.4295 LP  0  0  0  0  0  0  0  0  0  0  0  0  # atno 5217 bound_to 1931
  -12.4646  -24.2739  -38.9758 LP  0  0  0  0  0  0  0  0  0  0  0  0  # atno 5218 bound_to 1931
  -11.1478  -22.5340  -31.0137 LP  0  0  0  0  0  0  0  0  0  0  0  0  # atno 5224 bound_to 1070
  -12.6348  -22.6508  -30.3491 LP  0  0  0  0  0  0  0  0  0  0  0  0  # atno 5225 bound_to 1070

$$$$
EZ_20|Lisa_paper2_min|sdf|8|dock5
  -GOLD-  10182017 43D 1   1.00000     0.00000

 60 63  0  0  0  0  0  0  0  0  1 V2000
   -3.3025  -29.6734  -32.8792 C   0  0  0  0  0  0  0  0  0  0  0  0
   -3.7216  -31.0017  -32.9151 C   0  0  0  0  0  0  0  0  0  0  0  0
   -4.1196  -28.6533  -33.3751 C   0  0  0  0  0  0  0  0  0  0  0  0
   -4.9674  -31.3545  -33.4456 C   0  0  0  0  0  0  0  0  0  0  0  0
  -12.0077  -26.6907  -36.7428 C   0  0  0  0  0  0  0  0  0  0  0  0
  -11.5197  -24.7284  -35.4205 C   0  0  0  0  0  0  0  0  0  0  0  0
  -17.9520  -24.9898  -35.8668 C   0  0  0  0  0  0  0  0  0  0  0  0
  -10.7949  -27.2568  -36.3504 C   0  0  0  0  0  0  0  0  0  0  0  0
  -10.3068  -25.2947  -35.0280 C   0  0  0  0  0  0  0  0  0  0  0  0
  -19.3442  -25.0748  -35.8552 C   0  0  0  0  0  0  0  0  0  0  0  0
  -18.0233  -24.1269  -38.1223 C   0  0  0  0  0  0  0  0  0  0  0  0
   -5.3747  -28.9903  -33.9121 C   0  0  0  0  0  0  0  0  0  0  0  0
   -5.7808  -30.3250  -33.9409 C   0  0  0  0  0  0  0  0  0  0  0  0
  -12.3702  -25.4264  -36.2779 C   0  0  0  0  0  0  0  0  0  0  0  0
  -17.2916  -24.5158  -37.0002 C   0  0  0  0  0  0  0  0  0  0  0  0
   -9.9444  -26.5589  -35.4929 C   0  0  0  0  0  0  0  0  0  0  0  0
  -20.0760  -24.6860  -36.9772 C   0  0  0  0  0  0  0  0  0  0  0  0
  -19.4156  -24.2120  -38.1108 C   0  0  0  0  0  0  0  0  0  0  0  0
   -7.3076  -28.9769  -34.8018 C   0  0  0  0  0  0  0  0  0  0  0  0
   -7.8769  -31.3973  -34.7768 C   0  0  0  0  0  0  0  0  0  0  0  0
  -14.9118  -25.2547  -36.4637 C   0  0  0  0  0  0  0  0  0  0  0  0
   -7.7265  -33.7040  -36.4200 C   0  0  0  0  0  0  0  0  0  0  0  0
   -7.0326  -34.9164  -34.3324 C   0  0  0  0  0  0  0  0  0  0  0  0
   -9.2977  -33.8387  -34.4584 C   0  0  0  0  0  0  0  0  0  0  0  0
   -8.5551  -28.4880  -35.4332 C   0  0  0  0  0  0  0  0  0  0  0  0
   -7.8368  -33.7471  -34.8966 C   0  0  0  0  0  0  0  0  0  0  0  0
   -6.3325  -28.1732  -34.4491 N   0  0  0  0  0  0  0  0  0  0  0  0
   -7.0427  -30.3028  -34.5231 N   0  0  0  0  0  0  0  0  0  0  0  0
  -13.5832  -24.8599  -36.6705 N   0  0  0  0  0  0  0  0  0  0  0  0
  -15.8768  -24.4290  -37.0112 N   0  0  0  0  0  0  0  0  0  0  0  0
   -8.9715  -31.2553  -35.2964 O   0  0  0  0  0  0  0  0  0  0  0  0
   -8.7545  -27.1143  -35.1078 O   0  0  0  0  0  0  0  0  0  0  0  0
   -7.2764  -32.5427  -34.3655 O   0  0  0  0  0  0  0  0  0  0  0  0
  -15.1763  -26.5881  -35.4675 S   0  0  0  0  0  0  0  0  0  0  0  0
  -21.7980  -24.8180  -36.9022 Cl  0  0  0  0  0  0  0  0  0  0  0  0
  -20.2665  -23.7174  -39.5321 Cl  0  0  0  0  0  0  0  0  0  0  0  0
   -2.3301  -29.4263  -32.4618 H   0  0  0  0  0  0  0  0  0  0  0  0
   -3.0696  -31.7792  -32.5244 H   0  0  0  0  0  0  0  0  0  0  0  0
   -3.7862  -27.6206  -33.3442 H   0  0  0  0  0  0  0  0  0  0  0  0
   -5.2698  -32.3949  -33.4619 H   0  0  0  0  0  0  0  0  0  0  0  0
  -12.6629  -27.2436  -37.4112 H   0  0  0  0  0  0  0  0  0  0  0  0
  -11.7916  -23.7425  -35.0519 H   0  0  0  0  0  0  0  0  0  0  0  0
  -17.3913  -25.2940  -34.9865 H   0  0  0  0  0  0  0  0  0  0  0  0
  -10.5182  -28.2420  -36.7158 H   0  0  0  0  0  0  0  0  0  0  0  0
   -9.6485  -24.7459  -34.3599 H   0  0  0  0  0  0  0  0  0  0  0  0
  -19.8422  -25.4452  -34.9626 H   0  0  0  0  0  0  0  0  0  0  0  0
  -17.5024  -23.7593  -39.0041 H   0  0  0  0  0  0  0  0  0  0  0  0
   -6.7216  -33.3954  -36.7294 H   0  0  0  0  0  0  0  0  0  0  0  0
   -7.9442  -34.6791  -36.8680 H   0  0  0  0  0  0  0  0  0  0  0  0
   -8.4197  -32.9670  -36.8416 H   0  0  0  0  0  0  0  0  0  0  0  0
   -5.9869  -34.8630  -34.6562 H   0  0  0  0  0  0  0  0  0  0  0  0
   -7.4218  -35.8720  -34.7020 H   0  0  0  0  0  0  0  0  0  0  0  0
   -7.0563  -34.9323  -33.2380 H   0  0  0  0  0  0  0  0  0  0  0  0
   -9.4208  -33.4800  -33.4301 H   0  0  0  0  0  0  0  0  0  0  0  0
   -9.9518  -33.2505  -35.1102 H   0  0  0  0  0  0  0  0  0  0  0  0
   -9.6424  -34.8790  -34.4664 H   0  0  0  0  0  0  0  0  0  0  0  0
   -8.5234  -28.5800  -36.5313 H   0  0  0  0  0  0  0  0  0  0  0  0
   -9.4350  -29.0561  -35.0893 H   0  0  0  0  0  0  0  0  0  0  0  0
  -13.5110  -23.9724  -37.1828 H   0  0  0  0  0  0  0  0  0  0  0  0
  -15.5209  -23.5630  -37.4085 H   0  0  0  0  0  0  0  0  0  0  0  0
  1  2  2  0  0  0  0
  1  3  1  0  0  0  0
  2  4  1  0  0  0  0
  3 12  2  0  0  0  0
  4 13  2  0  0  0  0
  5  8  1  0  0  0  0
  5 14  2  0  0  0  0
  6  9  2  0  0  0  0
  6 14  1  0  0  0  0
  7 10  1  0  0  0  0
  7 15  2  0  0  0  0
  8 16  2  0  0  0  0
  9 16  1  0  0  0  0
 10 17  2  0  0  0  0
 11 15  1  0  0  0  0
 11 18  2  0  0  0  0
 12 13  1  0  0  0  0
 12 27  1  0  0  0  0
 13 28  1  0  0  0  0
 14 29  1  0  0  0  0
 15 30  1  0  0  0  0
 16 32  1  0  0  0  0
 17 18  1  0  0  0  0
 17 35  1  0  0  0  0
 18 36  1  0  0  0  0
 19 25  1  0  0  0  0
 19 27  2  0  0  0  0
 19 28  1  0  0  0  0
 20 28  1  0  0  0  0
 20 31  2  0  0  0  0
 20 33  1  0  0  0  0
 21 29  1  0  0  0  0
 21 30  1  0  0  0  0
 21 34  2  0  0  0  0
 22 26  1  0  0  0  0
 23 26  1  0  0  0  0
 24 26  1  0  0  0  0
 25 32  1  0  0  0  0
 26 33  1  0  0  0  0
  1 37  1  0  0  0  0
  2 38  1  0  0  0  0
  3 39  1  0  0  0  0
  4 40  1  0  0  0  0
  5 41  1  0  0  0  0
  6 42  1  0  0  0  0
  7 43  1  0  0  0  0
  8 44  1  0  0  0  0
  9 45  1  0  0  0  0
 10 46  1  0  0  0  0
 11 47  1  0  0  0  0
 22 48  1  0  0  0  0
 22 49  1  0  0  0  0
 22 50  1  0  0  0  0
 23 51  1  0  0  0  0
 23 52  1  0  0  0  0
 23 53  1  0  0  0  0
 24 54  1  0  0  0  0
 24 55  1  0  0  0  0
 24 56  1  0  0  0  0
 25 57  1  0  0  0  0
 25 58  1  0  0  0  0
 29 59  1  0  0  0  0
 30 60  1  0  0  0  0
M  END
> <Name>
EZ_20

> <SourceTag>
EZ_20

> <Activity_FLAP>
100

> <Activity_sEH>
19.1

> <Gold.Version>
5.2

> <Gold.Id.Protein>
6HGV|6HGV_protein|mol2

> <Gold.Goldscore.Fitness>
93.7862

> <Gold.Goldscore.Internal.Vdw>
-14.0090

> <Gold.Goldscore.Internal.Torsion>
-10.6396

> <Gold.Goldscore.External.Vdw>
72.3242

> <Gold.Goldscore.Internal.HBond>
0.0000

> <Gold.Goldscore.External.HBond>
0.0000

> <Gold.Goldscore.Internal.Correction>
-18.9890

> <Gold.Goldscore.Internal.Vdw.Weighted>
-14.0090

> <Gold.Goldscore.Internal.Torsion.Weighted>
-10.6396

> <Gold.Goldscore.External.Vdw.Weighted>
99.4458

> <Gold.Goldscore.Internal.HBond.Weighted>
0.0000

> <Gold.Goldscore.External.HBond.Weighted>
0.0000

> <Gold.Goldscore.Internal.Correction.Weighted>
-18.9890

> <Gold.Protein.RotatedTorsions>
[ 3781 1176 1175 1172 ] final   12.56 input   60.00 | X-H torsion
[ 3847 1247 1246 1244 ] final   70.18 input   60.00 | X-H torsion
[ 4507 1931 1930 1928 ] final  -18.77 input   60.00 | X-H torsion
[ 3677 1070 1069 1066 ] final  -95.15 input   60.00 | X-H torsion
[ 3525  925  924  922 ] final  -37.73 input   59.99 | X-H torsion
[ 4531 1957 1955 1953 ] final   36.43 input   60.00 | X-H torsion

> <Gold.Protein.ActiveResidues>
 PHE267  PRO268  MET310  ASP335  TRP336  MET339  TYR343  THR360  PRO361  ILE363 
 PRO371  SER374  ILE375  ASN378  PHE381  TYR383  GLN384  PHE387  LEU408  LEU417 
 MET419  LEU428  TYR466  MET469  ASN472  ASP496  VAL498  LEU499  MET503  HIS524 
 TRP525 

> <Gold.Protein.RotatedAtoms>
   -3.7725  -29.5224  -29.8966 H   0  0  0  0  0  0  0  0  0  0  0  0  # atno 3525 bound_to 925 
  -11.8062  -23.7833  -31.3985 H   0  0  0  0  0  0  0  0  0  0  0  0  # atno 3677 bound_to 1070
  -10.8288  -37.3248  -33.4872 H   0  0  0  0  0  0  0  0  0  0  0  0  # atno 3781 bound_to 1176
  -14.6981  -28.8694  -37.3941 H   0  0  0  0  0  0  0  0  0  0  0  0  # atno 3847 bound_to 1247
  -13.4404  -25.3764  -39.3228 H   0  0  0  0  0  0  0  0  0  0  0  0  # atno 4507 bound_to 1931
   -3.0937  -33.0348  -36.6533 H   0  0  0  0  0  0  0  0  0  0  0  0  # atno 4531 bound_to 1957
   -9.6001  -36.3444  -33.9079 LP  0  0  0  0  0  0  0  0  0  0  0  0  # atno 5205 bound_to 1176
   -9.6762  -36.9608  -32.3977 LP  0  0  0  0  0  0  0  0  0  0  0  0  # atno 5206 bound_to 1176
  -16.0710  -28.0234  -37.1761 LP  0  0  0  0  0  0  0  0  0  0  0  0  # atno 5215 bound_to 1247
  -14.7988  -27.3388  -37.9374 LP  0  0  0  0  0  0  0  0  0  0  0  0  # atno 5216 bound_to 1247
  -13.3189  -24.2358  -40.4771 LP  0  0  0  0  0  0  0  0  0  0  0  0  # atno 5217 bound_to 1931
  -12.4329  -24.1163  -39.1106 LP  0  0  0  0  0  0  0  0  0  0  0  0  # atno 5218 bound_to 1931
  -11.2842  -22.3468  -30.8400 LP  0  0  0  0  0  0  0  0  0  0  0  0  # atno 5224 bound_to 1070
  -12.7646  -22.8979  -30.4260 LP  0  0  0  0  0  0  0  0  0  0  0  0  # atno 5225 bound_to 1070

$$$$
EZ_20|Lisa_paper2_min|sdf|8|dock3
  -GOLD-  10182017 33D 1   1.00000     0.00000

 60 63  0  0  0  0  0  0  0  0  1 V2000
   -3.1532  -29.0327  -33.1204 C   0  0  0  0  0  0  0  0  0  0  0  0
   -3.3734  -30.4025  -33.2493 C   0  0  0  0  0  0  0  0  0  0  0  0
   -4.1513  -28.1143  -33.4586 C   0  0  0  0  0  0  0  0  0  0  0  0
   -4.5945  -30.8993  -33.7186 C   0  0  0  0  0  0  0  0  0  0  0  0
  -12.5383  -27.0312  -35.8756 C   0  0  0  0  0  0  0  0  0  0  0  0
  -12.1234  -25.2563  -34.2898 C   0  0  0  0  0  0  0  0  0  0  0  0
  -17.3018  -23.6476  -37.9153 C   0  0  0  0  0  0  0  0  0  0  0  0
  -11.2008  -27.4182  -35.7924 C   0  0  0  0  0  0  0  0  0  0  0  0
  -10.7859  -25.6433  -34.2067 C   0  0  0  0  0  0  0  0  0  0  0  0
  -18.3620  -23.2631  -38.7361 C   0  0  0  0  0  0  0  0  0  0  0  0
  -18.8215  -24.9508  -36.5629 C   0  0  0  0  0  0  0  0  0  0  0  0
   -5.3844  -28.5964  -33.9323 C   0  0  0  0  0  0  0  0  0  0  0  0
   -5.5902  -29.9710  -34.0557 C   0  0  0  0  0  0  0  0  0  0  0  0
  -12.9997  -25.9502  -35.1242 C   0  0  0  0  0  0  0  0  0  0  0  0
  -17.5316  -24.4915  -36.8288 C   0  0  0  0  0  0  0  0  0  0  0  0
  -10.3246  -26.7243  -34.9579 C   0  0  0  0  0  0  0  0  0  0  0  0
  -19.6520  -23.7223  -38.4704 C   0  0  0  0  0  0  0  0  0  0  0  0
  -19.8818  -24.5661  -37.3837 C   0  0  0  0  0  0  0  0  0  0  0  0
   -7.3672  -28.8095  -34.6745 C   0  0  0  0  0  0  0  0  0  0  0  0
   -7.5691  -31.2828  -34.8337 C   0  0  0  0  0  0  0  0  0  0  0  0
  -15.1475  -25.2211  -36.2986 C   0  0  0  0  0  0  0  0  0  0  0  0
   -8.6528  -33.6092  -33.7644 C   0  0  0  0  0  0  0  0  0  0  0  0
   -7.8196  -33.8360  -36.1232 C   0  0  0  0  0  0  0  0  0  0  0  0
   -6.4317  -34.7026  -34.2178 C   0  0  0  0  0  0  0  0  0  0  0  0
   -8.7226  -28.4696  -35.1655 C   0  0  0  0  0  0  0  0  0  0  0  0
   -7.4184  -33.6250  -34.6648 C   0  0  0  0  0  0  0  0  0  0  0  0
   -6.4947  -27.8961  -34.3201 N   0  0  0  0  0  0  0  0  0  0  0  0
   -6.8868  -30.0968  -34.5403 N   0  0  0  0  0  0  0  0  0  0  0  0
  -14.3374  -25.5630  -35.2074 N   0  0  0  0  0  0  0  0  0  0  0  0
  -16.4537  -24.8826  -35.9953 N   0  0  0  0  0  0  0  0  0  0  0  0
   -8.7132  -31.2699  -35.2570 O   0  0  0  0  0  0  0  0  0  0  0  0
   -9.0123  -27.1039  -34.8763 O   0  0  0  0  0  0  0  0  0  0  0  0
   -6.7733  -32.3512  -34.5753 O   0  0  0  0  0  0  0  0  0  0  0  0
  -14.4858  -25.3980  -37.8385 S   0  0  0  0  0  0  0  0  0  0  0  0
  -20.9237  -23.2077  -39.5220 Cl  0  0  0  0  0  0  0  0  0  0  0  0
  -21.4575  -25.1663  -37.0017 Cl  0  0  0  0  0  0  0  0  0  0  0  0
   -2.1958  -28.6731  -32.7534 H   0  0  0  0  0  0  0  0  0  0  0  0
   -2.5829  -31.0990  -32.9810 H   0  0  0  0  0  0  0  0  0  0  0  0
   -3.9724  -27.0484  -33.3560 H   0  0  0  0  0  0  0  0  0  0  0  0
   -4.7404  -31.9691  -33.8098 H   0  0  0  0  0  0  0  0  0  0  0  0
  -13.2124  -27.5793  -36.5290 H   0  0  0  0  0  0  0  0  0  0  0  0
  -12.4718  -24.4123  -33.6997 H   0  0  0  0  0  0  0  0  0  0  0  0
  -16.3002  -23.2853  -38.1323 H   0  0  0  0  0  0  0  0  0  0  0  0
  -10.8475  -28.2611  -36.3801 H   0  0  0  0  0  0  0  0  0  0  0  0
  -10.1081  -25.0987  -33.5548 H   0  0  0  0  0  0  0  0  0  0  0  0
  -18.1642  -22.6060  -39.5794 H   0  0  0  0  0  0  0  0  0  0  0  0
  -18.9948  -25.6079  -35.7129 H   0  0  0  0  0  0  0  0  0  0  0  0
   -9.4877  -33.0979  -34.2568 H   0  0  0  0  0  0  0  0  0  0  0  0
   -8.9726  -34.6225  -33.5005 H   0  0  0  0  0  0  0  0  0  0  0  0
   -8.4546  -33.0566  -32.8388 H   0  0  0  0  0  0  0  0  0  0  0  0
   -8.7393  -33.2881  -36.3580 H   0  0  0  0  0  0  0  0  0  0  0  0
   -8.0309  -34.8931  -36.3208 H   0  0  0  0  0  0  0  0  0  0  0  0
   -7.0339  -33.5053  -36.8102 H   0  0  0  0  0  0  0  0  0  0  0  0
   -5.5161  -34.6685  -34.8194 H   0  0  0  0  0  0  0  0  0  0  0  0
   -6.1573  -34.5862  -33.1642 H   0  0  0  0  0  0  0  0  0  0  0  0
   -6.8569  -35.7029  -34.3583 H   0  0  0  0  0  0  0  0  0  0  0  0
   -8.8145  -28.6173  -36.2541 H   0  0  0  0  0  0  0  0  0  0  0  0
   -9.4962  -29.0952  -34.6909 H   0  0  0  0  0  0  0  0  0  0  0  0
  -14.8489  -25.5473  -34.3167 H   0  0  0  0  0  0  0  0  0  0  0  0
  -16.7167  -25.0278  -35.0237 H   0  0  0  0  0  0  0  0  0  0  0  0
  1  2  2  0  0  0  0
  1  3  1  0  0  0  0
  2  4  1  0  0  0  0
  3 12  2  0  0  0  0
  4 13  2  0  0  0  0
  5  8  1  0  0  0  0
  5 14  2  0  0  0  0
  6  9  2  0  0  0  0
  6 14  1  0  0  0  0
  7 10  1  0  0  0  0
  7 15  2  0  0  0  0
  8 16  2  0  0  0  0
  9 16  1  0  0  0  0
 10 17  2  0  0  0  0
 11 15  1  0  0  0  0
 11 18  2  0  0  0  0
 12 13  1  0  0  0  0
 12 27  1  0  0  0  0
 13 28  1  0  0  0  0
 14 29  1  0  0  0  0
 15 30  1  0  0  0  0
 16 32  1  0  0  0  0
 17 18  1  0  0  0  0
 17 35  1  0  0  0  0
 18 36  1  0  0  0  0
 19 25  1  0  0  0  0
 19 27  2  0  0  0  0
 19 28  1  0  0  0  0
 20 28  1  0  0  0  0
 20 31  2  0  0  0  0
 20 33  1  0  0  0  0
 21 29  1  0  0  0  0
 21 30  1  0  0  0  0
 21 34  2  0  0  0  0
 22 26  1  0  0  0  0
 23 26  1  0  0  0  0
 24 26  1  0  0  0  0
 25 32  1  0  0  0  0
 26 33  1  0  0  0  0
  1 37  1  0  0  0  0
  2 38  1  0  0  0  0
  3 39  1  0  0  0  0
  4 40  1  0  0  0  0
  5 41  1  0  0  0  0
  6 42  1  0  0  0  0
  7 43  1  0  0  0  0
  8 44  1  0  0  0  0
  9 45  1  0  0  0  0
 10 46  1  0  0  0  0
 11 47  1  0  0  0  0
 22 48  1  0  0  0  0
 22 49  1  0  0  0  0
 22 50  1  0  0  0  0
 23 51  1  0  0  0  0
 23 52  1  0  0  0  0
 23 53  1  0  0  0  0
 24 54  1  0  0  0  0
 24 55  1  0  0  0  0
 24 56  1  0  0  0  0
 25 57  1  0  0  0  0
 25 58  1  0  0  0  0
 29 59  1  0  0  0  0
 30 60  1  0  0  0  0
M  END
> <Name>
EZ_20

> <SourceTag>
EZ_20

> <Activity_FLAP>
100

> <Activity_sEH>
19.1

> <Gold.Version>
5.2

> <Gold.Id.Protein>
6HGV|6HGV_protein|mol2

> <Gold.Goldscore.Fitness>
91.9539

> <Gold.Goldscore.Internal.Vdw>
-10.6679

> <Gold.Goldscore.Internal.Torsion>
-10.0446

> <Gold.Goldscore.External.Vdw>
68.0252

> <Gold.Goldscore.Internal.HBond>
0.0000

> <Gold.Goldscore.External.HBond>
0.1428

> <Gold.Goldscore.Internal.Correction>
-18.9890

> <Gold.Goldscore.Hbonds>
donor molecule, donor type, donor heavy atom, donor atom, acceptor molecule, acceptor atom, score
      P1  H  1931  4507       L1    34  0.14

> <Gold.Goldscore.Internal.Vdw.Weighted>
-10.6679

> <Gold.Goldscore.Internal.Torsion.Weighted>
-10.0446

> <Gold.Goldscore.External.Vdw.Weighted>
93.5346

> <Gold.Goldscore.Internal.HBond.Weighted>
0.0000

> <Gold.Goldscore.External.HBond.Weighted>
0.1428

> <Gold.Goldscore.Internal.Correction.Weighted>
-18.9890

> <Gold.Protein.RotatedTorsions>
[ 3781 1176 1175 1172 ] final  -49.58 input   60.00 | X-H torsion
[ 3847 1247 1246 1244 ] final  -55.34 input   60.00 | X-H torsion
[ 4507 1931 1930 1928 ] final   11.83 input   60.00 | X-H torsion
[ 3677 1070 1069 1066 ] final  -70.23 input   60.00 | X-H torsion
[ 3525  925  924  922 ] final  -18.50 input   59.99 | X-H torsion
[ 4531 1957 1955 1953 ] final   32.45 input   60.00 | X-H torsion

> <Gold.Protein.ActiveResidues>
 PHE267  PRO268  MET310  ASP335  TRP336  MET339  TYR343  THR360  PRO361  ILE363 
 PRO371  SER374  ILE375  ASN378  PHE381  TYR383  GLN384  PHE387  LEU408  LEU417 
 MET419  LEU428  TYR466  MET469  ASN472  ASP496  VAL498  LEU499  MET503  HIS524 
 TRP525 

> <Gold.Protein.RotatedAtoms>
   -3.7269  -29.5140  -30.2059 H   0  0  0  0  0  0  0  0  0  0  0  0  # atno 3525 bound_to 925 
  -12.1773  -23.8447  -31.2510 H   0  0  0  0  0  0  0  0  0  0  0  0  # atno 3677 bound_to 1070
  -10.3680  -36.7748  -34.1344 H   0  0  0  0  0  0  0  0  0  0  0  0  # atno 3781 bound_to 1176
  -16.0673  -27.9402  -37.2121 H   0  0  0  0  0  0  0  0  0  0  0  0  # atno 3847 bound_to 1247
  -13.1294  -25.2304  -38.9677 H   0  0  0  0  0  0  0  0  0  0  0  0  # atno 4507 bound_to 1931
   -3.0847  -32.9705  -36.6538 H   0  0  0  0  0  0  0  0  0  0  0  0  # atno 4531 bound_to 1957
   -9.2412  -36.4417  -33.0087 LP  0  0  0  0  0  0  0  0  0  0  0  0  # atno 5205 bound_to 1176
  -10.4993  -37.4172  -32.6451 LP  0  0  0  0  0  0  0  0  0  0  0  0  # atno 5206 bound_to 1176
  -14.7242  -27.3894  -37.9473 LP  0  0  0  0  0  0  0  0  0  0  0  0  # atno 5215 bound_to 1247
  -14.7667  -28.9085  -37.3495 LP  0  0  0  0  0  0  0  0  0  0  0  0  # atno 5216 bound_to 1247
  -13.5810  -24.6550  -40.4213 LP  0  0  0  0  0  0  0  0  0  0  0  0  # atno 5217 bound_to 1931
  -12.4840  -23.8440  -39.5239 LP  0  0  0  0  0  0  0  0  0  0  0  0  # atno 5218 bound_to 1931
  -11.1132  -22.6251  -31.0825 LP  0  0  0  0  0  0  0  0  0  0  0  0  # atno 5224 bound_to 1070
  -12.5620  -22.5579  -30.3320 LP  0  0  0  0  0  0  0  0  0  0  0  0  # atno 5225 bound_to 1070

$$$$
EZ_20|Lisa_paper2_min|sdf|8|dock10
  -GOLD-  10182017 53D 1   1.00000     0.00000

 60 63  0  0  0  0  0  0  0  0  1 V2000
   -3.1450  -28.9753  -33.1329 C   0  0  0  0  0  0  0  0  0  0  0  0
   -3.2880  -30.3553  -33.2609 C   0  0  0  0  0  0  0  0  0  0  0  0
   -4.2174  -28.1187  -33.3985 C   0  0  0  0  0  0  0  0  0  0  0  0
   -4.5034  -30.9244  -33.6571 C   0  0  0  0  0  0  0  0  0  0  0  0
  -11.5329  -25.0981  -36.2755 C   0  0  0  0  0  0  0  0  0  0  0  0
  -12.5145  -27.3006  -36.1250 C   0  0  0  0  0  0  0  0  0  0  0  0
  -17.8770  -23.4680  -38.3192 C   0  0  0  0  0  0  0  0  0  0  0  0
  -10.3804  -25.5687  -35.6464 C   0  0  0  0  0  0  0  0  0  0  0  0
  -11.3619  -27.7712  -35.4959 C   0  0  0  0  0  0  0  0  0  0  0  0
  -19.2236  -23.1256  -38.1968 C   0  0  0  0  0  0  0  0  0  0  0  0
  -18.1127  -25.0443  -36.5035 C   0  0  0  0  0  0  0  0  0  0  0  0
   -5.4460  -28.6739  -33.7981 C   0  0  0  0  0  0  0  0  0  0  0  0
   -5.5740  -30.0580  -33.9216 C   0  0  0  0  0  0  0  0  0  0  0  0
  -12.6001  -25.9640  -36.5148 C   0  0  0  0  0  0  0  0  0  0  0  0
  -17.3216  -24.4274  -37.4726 C   0  0  0  0  0  0  0  0  0  0  0  0
  -10.2948  -26.9053  -35.2567 C   0  0  0  0  0  0  0  0  0  0  0  0
  -20.0148  -23.7425  -37.2277 C   0  0  0  0  0  0  0  0  0  0  0  0
  -19.4593  -24.7018  -36.3810 C   0  0  0  0  0  0  0  0  0  0  0  0
   -7.4550  -29.0057  -34.4158 C   0  0  0  0  0  0  0  0  0  0  0  0
   -7.5136  -31.4859  -34.5859 C   0  0  0  0  0  0  0  0  0  0  0  0
  -15.0479  -25.2506  -36.6664 C   0  0  0  0  0  0  0  0  0  0  0  0
   -7.8428  -34.0654  -35.7614 C   0  0  0  0  0  0  0  0  0  0  0  0
   -6.0966  -34.8124  -34.1175 C   0  0  0  0  0  0  0  0  0  0  0  0
   -8.2754  -33.8772  -33.2891 C   0  0  0  0  0  0  0  0  0  0  0  0
   -8.8573  -28.7480  -34.8169 C   0  0  0  0  0  0  0  0  0  0  0  0
   -7.2180  -33.8121  -34.3902 C   0  0  0  0  0  0  0  0  0  0  0  0
   -6.6198  -28.0419  -34.1083 N   0  0  0  0  0  0  0  0  0  0  0  0
   -6.8885  -30.2614  -34.3246 N   0  0  0  0  0  0  0  0  0  0  0  0
  -13.7529  -25.4935  -37.1439 N   0  0  0  0  0  0  0  0  0  0  0  0
  -15.9532  -24.7755  -37.5979 N   0  0  0  0  0  0  0  0  0  0  0  0
   -8.6808  -31.5417  -34.9361 O   0  0  0  0  0  0  0  0  0  0  0  0
   -9.1641  -27.3670  -34.6394 O   0  0  0  0  0  0  0  0  0  0  0  0
   -6.6385  -32.5041  -34.3886 O   0  0  0  0  0  0  0  0  0  0  0  0
  -15.3074  -25.4268  -35.0105 S   0  0  0  0  0  0  0  0  0  0  0  0
  -21.6752  -23.2729  -37.1237 Cl  0  0  0  0  0  0  0  0  0  0  0  0
  -20.3875  -25.4994  -35.1597 Cl  0  0  0  0  0  0  0  0  0  0  0  0
   -2.1902  -28.5588  -32.8235 H   0  0  0  0  0  0  0  0  0  0  0  0
   -2.4405  -31.0028  -33.0498 H   0  0  0  0  0  0  0  0  0  0  0  0
   -4.0985  -27.0444  -33.2970 H   0  0  0  0  0  0  0  0  0  0  0  0
   -4.5885  -32.0007  -33.7492 H   0  0  0  0  0  0  0  0  0  0  0  0
  -11.5887  -24.0546  -36.5752 H   0  0  0  0  0  0  0  0  0  0  0  0
  -13.3398  -27.9845  -36.3063 H   0  0  0  0  0  0  0  0  0  0  0  0
  -17.2697  -22.9824  -39.0788 H   0  0  0  0  0  0  0  0  0  0  0  0
   -9.5525  -24.8892  -35.4628 H   0  0  0  0  0  0  0  0  0  0  0  0
  -11.3012  -28.8135  -35.1946 H   0  0  0  0  0  0  0  0  0  0  0  0
  -19.6400  -22.3769  -38.8661 H   0  0  0  0  0  0  0  0  0  0  0  0
  -17.6733  -25.7910  -35.8450 H   0  0  0  0  0  0  0  0  0  0  0  0
   -8.8601  -33.6605  -35.8068 H   0  0  0  0  0  0  0  0  0  0  0  0
   -7.2519  -33.6122  -36.5640 H   0  0  0  0  0  0  0  0  0  0  0  0
   -7.9289  -35.1400  -35.9594 H   0  0  0  0  0  0  0  0  0  0  0  0
   -6.4783  -35.8397  -34.1311 H   0  0  0  0  0  0  0  0  0  0  0  0
   -5.6675  -34.6556  -33.1213 H   0  0  0  0  0  0  0  0  0  0  0  0
   -5.2939  -34.7310  -34.8576 H   0  0  0  0  0  0  0  0  0  0  0  0
   -7.8685  -33.5240  -32.3347 H   0  0  0  0  0  0  0  0  0  0  0  0
   -9.1528  -33.2707  -33.5363 H   0  0  0  0  0  0  0  0  0  0  0  0
   -8.6018  -34.9102  -33.1228 H   0  0  0  0  0  0  0  0  0  0  0  0
   -9.0368  -29.0069  -35.8734 H   0  0  0  0  0  0  0  0  0  0  0  0
   -9.5677  -29.3400  -34.2168 H   0  0  0  0  0  0  0  0  0  0  0  0
  -13.6456  -25.2460  -38.1352 H   0  0  0  0  0  0  0  0  0  0  0  0
  -15.5516  -24.5463  -38.5037 H   0  0  0  0  0  0  0  0  0  0  0  0
  1  2  2  0  0  0  0
  1  3  1  0  0  0  0
  2  4  1  0  0  0  0
  3 12  2  0  0  0  0
  4 13  2  0  0  0  0
  5  8  1  0  0  0  0
  5 14  2  0  0  0  0
  6  9  2  0  0  0  0
  6 14  1  0  0  0  0
  7 10  1  0  0  0  0
  7 15  2  0  0  0  0
  8 16  2  0  0  0  0
  9 16  1  0  0  0  0
 10 17  2  0  0  0  0
 11 15  1  0  0  0  0
 11 18  2  0  0  0  0
 12 13  1  0  0  0  0
 12 27  1  0  0  0  0
 13 28  1  0  0  0  0
 14 29  1  0  0  0  0
 15 30  1  0  0  0  0
 16 32  1  0  0  0  0
 17 18  1  0  0  0  0
 17 35  1  0  0  0  0
 18 36  1  0  0  0  0
 19 25  1  0  0  0  0
 19 27  2  0  0  0  0
 19 28  1  0  0  0  0
 20 28  1  0  0  0  0
 20 31  2  0  0  0  0
 20 33  1  0  0  0  0
 21 29  1  0  0  0  0
 21 30  1  0  0  0  0
 21 34  2  0  0  0  0
 22 26  1  0  0  0  0
 23 26  1  0  0  0  0
 24 26  1  0  0  0  0
 25 32  1  0  0  0  0
 26 33  1  0  0  0  0
  1 37  1  0  0  0  0
  2 38  1  0  0  0  0
  3 39  1  0  0  0  0
  4 40  1  0  0  0  0
  5 41  1  0  0  0  0
  6 42  1  0  0  0  0
  7 43  1  0  0  0  0
  8 44  1  0  0  0  0
  9 45  1  0  0  0  0
 10 46  1  0  0  0  0
 11 47  1  0  0  0  0
 22 48  1  0  0  0  0
 22 49  1  0  0  0  0
 22 50  1  0  0  0  0
 23 51  1  0  0  0  0
 23 52  1  0  0  0  0
 23 53  1  0  0  0  0
 24 54  1  0  0  0  0
 24 55  1  0  0  0  0
 24 56  1  0  0  0  0
 25 57  1  0  0  0  0
 25 58  1  0  0  0  0
 29 59  1  0  0  0  0
 30 60  1  0  0  0  0
M  END
> <Name>
EZ_20

> <SourceTag>
EZ_20

> <Activity_FLAP>
100

> <Activity_sEH>
19.1

> <Gold.Version>
5.2

> <Gold.Id.Protein>
6HGV|6HGV_protein|mol2

> <Gold.Goldscore.Fitness>
90.6993

> <Gold.Goldscore.Internal.Vdw>
-10.2082

> <Gold.Goldscore.Internal.Torsion>
-10.1045

> <Gold.Goldscore.External.Vdw>
65.7526

> <Gold.Goldscore.Internal.HBond>
0.0000

> <Gold.Goldscore.External.HBond>
1.6145

> <Gold.Goldscore.Internal.Correction>
-18.9875

> <Gold.Goldscore.Hbonds>
donor molecule, donor type, donor heavy atom, donor atom, acceptor molecule, acceptor atom, score
      L1  H    29    59       P1  1931  0.81

> <Gold.Goldscore.Internal.Vdw.Weighted>
-10.2082

> <Gold.Goldscore.Internal.Torsion.Weighted>
-10.1045

> <Gold.Goldscore.External.Vdw.Weighted>
90.4099

> <Gold.Goldscore.Internal.HBond.Weighted>
0.0000

> <Gold.Goldscore.External.HBond.Weighted>
1.6145

> <Gold.Goldscore.Internal.Correction.Weighted>
-18.9875

> <Gold.Protein.RotatedTorsions>
[ 3781 1176 1175 1172 ] final   26.70 input   60.00 | X-H torsion
[ 3847 1247 1246 1244 ] final  -33.04 input   60.00 | X-H torsion
[ 4507 1931 1930 1928 ] final -102.33 input   60.00 | X-H torsion
[ 3677 1070 1069 1066 ] final  -57.26 input   60.00 | X-H torsion
[ 3525  925  924  922 ] final  -15.98 input   59.99 | X-H torsion
[ 4531 1957 1955 1953 ] final    8.64 input   60.00 | X-H torsion

> <Gold.Protein.ActiveResidues>
 PHE267  PRO268  MET310  ASP335  TRP336  MET339  TYR343  THR360  PRO361  ILE363 
 PRO371  SER374  ILE375  ASN378  PHE381  TYR383  GLN384  PHE387  LEU408  LEU417 
 MET419  LEU428  TYR466  MET469  ASN472  ASP496  VAL498  LEU499  MET503  HIS524 
 TRP525 

> <Gold.Protein.RotatedAtoms>
   -3.7139  -29.5161  -30.2450 H   0  0  0  0  0  0  0  0  0  0  0  0  # atno 3525 bound_to 925 
  -12.3579  -23.8148  -31.1452 H   0  0  0  0  0  0  0  0  0  0  0  0  # atno 3677 bound_to 1070
  -10.8155  -37.3976  -33.2690 H   0  0  0  0  0  0  0  0  0  0  0  0  # atno 3781 bound_to 1176
  -16.0109  -28.2810  -37.1039 H   0  0  0  0  0  0  0  0  0  0  0  0  # atno 3847 bound_to 1247
  -13.6108  -24.7364  -40.3800 H   0  0  0  0  0  0  0  0  0  0  0  0  # atno 4507 bound_to 1931
   -2.9426  -32.6118  -36.6747 H   0  0  0  0  0  0  0  0  0  0  0  0  # atno 4531 bound_to 1957
   -9.7769  -36.4120  -34.0422 LP  0  0  0  0  0  0  0  0  0  0  0  0  # atno 5205 bound_to 1176
   -9.5129  -36.8198  -32.4832 LP  0  0  0  0  0  0  0  0  0  0  0  0  # atno 5206 bound_to 1176
  -15.0449  -27.2285  -37.8830 LP  0  0  0  0  0  0  0  0  0  0  0  0  # atno 5215 bound_to 1247
  -14.5028  -28.7262  -37.5228 LP  0  0  0  0  0  0  0  0  0  0  0  0  # atno 5216 bound_to 1247
  -12.5134  -23.8138  -39.6102 LP  0  0  0  0  0  0  0  0  0  0  0  0  # atno 5217 bound_to 1931
  -13.0668  -25.1828  -38.9128 LP  0  0  0  0  0  0  0  0  0  0  0  0  # atno 5218 bound_to 1931
  -11.0851  -22.8022  -31.1972 LP  0  0  0  0  0  0  0  0  0  0  0  0  # atno 5224 bound_to 1070
  -12.4082  -22.4109  -30.3238 LP  0  0  0  0  0  0  0  0  0  0  0  0  # atno 5225 bound_to 1070

$$$$
EZ_20|Lisa_paper2_min|sdf|8|dock9
  -GOLD-  10182017 53D 1   1.00000     0.00000

 60 63  0  0  0  0  0  0  0  0  1 V2000
   -3.6237  -30.1733  -32.9003 C   0  0  0  0  0  0  0  0  0  0  0  0
   -4.1115  -31.4783  -32.9205 C   0  0  0  0  0  0  0  0  0  0  0  0
   -4.3946  -29.1154  -33.3908 C   0  0  0  0  0  0  0  0  0  0  0  0
   -5.3820  -31.7694  -33.4294 C   0  0  0  0  0  0  0  0  0  0  0  0
  -12.0965  -26.6469  -36.8216 C   0  0  0  0  0  0  0  0  0  0  0  0
  -11.2418  -24.6240  -35.8143 C   0  0  0  0  0  0  0  0  0  0  0  0
  -17.7659  -23.4159  -38.2951 C   0  0  0  0  0  0  0  0  0  0  0  0
  -10.9321  -27.3216  -36.4549 C   0  0  0  0  0  0  0  0  0  0  0  0
  -10.0774  -25.2988  -35.4476 C   0  0  0  0  0  0  0  0  0  0  0  0
  -19.1606  -23.4087  -38.3143 C   0  0  0  0  0  0  0  0  0  0  0  0
  -17.8008  -24.5906  -36.1842 C   0  0  0  0  0  0  0  0  0  0  0  0
   -5.6738  -29.3902  -33.9061 C   0  0  0  0  0  0  0  0  0  0  0  0
   -6.1488  -30.7023  -33.9194 C   0  0  0  0  0  0  0  0  0  0  0  0
  -12.2515  -25.2981  -36.5014 C   0  0  0  0  0  0  0  0  0  0  0  0
  -17.0860  -24.0068  -37.2302 C   0  0  0  0  0  0  0  0  0  0  0  0
   -9.9226  -26.6475  -35.7677 C   0  0  0  0  0  0  0  0  0  0  0  0
  -19.8754  -23.9925  -37.2684 C   0  0  0  0  0  0  0  0  0  0  0  0
  -19.1955  -24.5834  -36.2033 C   0  0  0  0  0  0  0  0  0  0  0  0
   -7.6170  -29.2822  -34.7663 C   0  0  0  0  0  0  0  0  0  0  0  0
   -8.3103  -31.6697  -34.7156 C   0  0  0  0  0  0  0  0  0  0  0  0
  -14.7718  -24.9425  -36.7143 C   0  0  0  0  0  0  0  0  0  0  0  0
   -9.7264  -34.1588  -34.7363 C   0  0  0  0  0  0  0  0  0  0  0  0
   -7.9621  -33.7912  -36.4861 C   0  0  0  0  0  0  0  0  0  0  0  0
   -7.4578  -35.2188  -34.4821 C   0  0  0  0  0  0  0  0  0  0  0  0
   -8.8473  -28.7333  -35.3819 C   0  0  0  0  0  0  0  0  0  0  0  0
   -8.2289  -34.0045  -34.9975 C   0  0  0  0  0  0  0  0  0  0  0  0
   -6.5963  -28.5279  -34.4342 N   0  0  0  0  0  0  0  0  0  0  0  0
   -7.4168  -30.6183  -34.4823 N   0  0  0  0  0  0  0  0  0  0  0  0
  -13.4160  -24.6231  -36.8682 N   0  0  0  0  0  0  0  0  0  0  0  0
  -15.6686  -24.0145  -37.2115 N   0  0  0  0  0  0  0  0  0  0  0  0
   -9.4041  -31.4744  -35.2193 O   0  0  0  0  0  0  0  0  0  0  0  0
   -8.7801  -27.3094  -35.4079 O   0  0  0  0  0  0  0  0  0  0  0  0
   -7.7635  -32.8420  -34.3055 O   0  0  0  0  0  0  0  0  0  0  0  0
  -15.1445  -26.3276  -35.8293 S   0  0  0  0  0  0  0  0  0  0  0  0
  -21.6016  -23.9485  -37.3484 Cl  0  0  0  0  0  0  0  0  0  0  0  0
  -20.0251  -25.3205  -34.8776 Cl  0  0  0  0  0  0  0  0  0  0  0  0
   -2.6335  -29.9743  -32.4996 H   0  0  0  0  0  0  0  0  0  0  0  0
   -3.4946  -32.2861  -32.5344 H   0  0  0  0  0  0  0  0  0  0  0  0
   -4.0079  -28.1011  -33.3722 H   0  0  0  0  0  0  0  0  0  0  0  0
   -5.7380  -32.7929  -33.4338 H   0  0  0  0  0  0  0  0  0  0  0  0
  -12.8770  -27.1821  -37.3567 H   0  0  0  0  0  0  0  0  0  0  0  0
  -11.3515  -23.5730  -35.5595 H   0  0  0  0  0  0  0  0  0  0  0  0
  -17.2184  -22.9597  -39.1160 H   0  0  0  0  0  0  0  0  0  0  0  0
  -10.8174  -28.3723  -36.7071 H   0  0  0  0  0  0  0  0  0  0  0  0
   -9.2944  -24.7682  -34.9125 H   0  0  0  0  0  0  0  0  0  0  0  0
  -19.6738  -22.9450  -39.1530 H   0  0  0  0  0  0  0  0  0  0  0  0
  -17.2648  -25.0489  -35.3555 H   0  0  0  0  0  0  0  0  0  0  0  0
   -9.9713  -33.8902  -33.7025 H   0  0  0  0  0  0  0  0  0  0  0  0
  -10.3200  -33.5310  -35.4087 H   0  0  0  0  0  0  0  0  0  0  0  0
  -10.0409  -35.2006  -34.8677 H   0  0  0  0  0  0  0  0  0  0  0  0
   -8.6459  -33.0422  -36.9015 H   0  0  0  0  0  0  0  0  0  0  0  0
   -8.1363  -34.7148  -37.0499 H   0  0  0  0  0  0  0  0  0  0  0  0
   -6.9342  -33.4618  -36.6692 H   0  0  0  0  0  0  0  0  0  0  0  0
   -7.7681  -36.1303  -35.0059 H   0  0  0  0  0  0  0  0  0  0  0  0
   -6.3778  -35.0959  -34.6128 H   0  0  0  0  0  0  0  0  0  0  0  0
   -7.6629  -35.3882  -33.4189 H   0  0  0  0  0  0  0  0  0  0  0  0
   -8.9838  -29.0898  -36.4161 H   0  0  0  0  0  0  0  0  0  0  0  0
   -9.7493  -29.0267  -34.8202 H   0  0  0  0  0  0  0  0  0  0  0  0
  -13.2748  -23.7059  -37.3087 H   0  0  0  0  0  0  0  0  0  0  0  0
  -15.2483  -23.1465  -37.5344 H   0  0  0  0  0  0  0  0  0  0  0  0
  1  2  2  0  0  0  0
  1  3  1  0  0  0  0
  2  4  1  0  0  0  0
  3 12  2  0  0  0  0
  4 13  2  0  0  0  0
  5  8  1  0  0  0  0
  5 14  2  0  0  0  0
  6  9  2  0  0  0  0
  6 14  1  0  0  0  0
  7 10  1  0  0  0  0
  7 15  2  0  0  0  0
  8 16  2  0  0  0  0
  9 16  1  0  0  0  0
 10 17  2  0  0  0  0
 11 15  1  0  0  0  0
 11 18  2  0  0  0  0
 12 13  1  0  0  0  0
 12 27  1  0  0  0  0
 13 28  1  0  0  0  0
 14 29  1  0  0  0  0
 15 30  1  0  0  0  0
 16 32  1  0  0  0  0
 17 18  1  0  0  0  0
 17 35  1  0  0  0  0
 18 36  1  0  0  0  0
 19 25  1  0  0  0  0
 19 27  2  0  0  0  0
 19 28  1  0  0  0  0
 20 28  1  0  0  0  0
 20 31  2  0  0  0  0
 20 33  1  0  0  0  0
 21 29  1  0  0  0  0
 21 30  1  0  0  0  0
 21 34  2  0  0  0  0
 22 26  1  0  0  0  0
 23 26  1  0  0  0  0
 24 26  1  0  0  0  0
 25 32  1  0  0  0  0
 26 33  1  0  0  0  0
  1 37  1  0  0  0  0
  2 38  1  0  0  0  0
  3 39  1  0  0  0  0
  4 40  1  0  0  0  0
  5 41  1  0  0  0  0
  6 42  1  0  0  0  0
  7 43  1  0  0  0  0
  8 44  1  0  0  0  0
  9 45  1  0  0  0  0
 10 46  1  0  0  0  0
 11 47  1  0  0  0  0
 22 48  1  0  0  0  0
 22 49  1  0  0  0  0
 22 50  1  0  0  0  0
 23 51  1  0  0  0  0
 23 52  1  0  0  0  0
 23 53  1  0  0  0  0
 24 54  1  0  0  0  0
 24 55  1  0  0  0  0
 24 56  1  0  0  0  0
 25 57  1  0  0  0  0
 25 58  1  0  0  0  0
 29 59  1  0  0  0  0
 30 60  1  0  0  0  0
M  END
> <Name>
EZ_20

> <SourceTag>
EZ_20

> <Activity_FLAP>
100

> <Activity_sEH>
19.1

> <Gold.Version>
5.2

> <Gold.Id.Protein>
6HGV|6HGV_protein|mol2

> <Gold.Goldscore.Fitness>
90.1295

> <Gold.Goldscore.Internal.Vdw>
-12.9352

> <Gold.Goldscore.Internal.Torsion>
-10.6678

> <Gold.Goldscore.External.Vdw>
68.8172

> <Gold.Goldscore.Internal.HBond>
0.0000

> <Gold.Goldscore.External.HBond>
0.1199

> <Gold.Goldscore.Internal.Correction>
-18.9890

> <Gold.Goldscore.Hbonds>
donor molecule, donor type, donor heavy atom, donor atom, acceptor molecule, acceptor atom, score
      L1  H    29    59       P1   854  0.01
      L1  H    30    60       P1   302  0.02

> <Gold.Goldscore.Internal.Vdw.Weighted>
-12.9352

> <Gold.Goldscore.Internal.Torsion.Weighted>
-10.6678

> <Gold.Goldscore.External.Vdw.Weighted>
94.6236

> <Gold.Goldscore.Internal.HBond.Weighted>
0.0000

> <Gold.Goldscore.External.HBond.Weighted>
0.1199

> <Gold.Goldscore.Internal.Correction.Weighted>
-18.9890

> <Gold.Protein.RotatedTorsions>
[ 3781 1176 1175 1172 ] final  140.31 input   60.00 | X-H torsion
[ 3847 1247 1246 1244 ] final   62.98 input   60.00 | X-H torsion
[ 4507 1931 1930 1928 ] final  -39.39 input   60.00 | X-H torsion
[ 3677 1070 1069 1066 ] final -137.60 input   60.00 | X-H torsion
[ 3525  925  924  922 ] final  -30.41 input   59.99 | X-H torsion
[ 4531 1957 1955 1953 ] final   29.76 input   60.00 | X-H torsion

> <Gold.Protein.ActiveResidues>
 PHE267  PRO268  MET310  ASP335  TRP336  MET339  TYR343  THR360  PRO361  ILE363 
 PRO371  SER374  ILE375  ASN378  PHE381  TYR383  GLN384  PHE387  LEU408  LEU417 
 MET419  LEU428  TYR466  MET469  ASN472  ASP496  VAL498  LEU499  MET503  HIS524 
 TRP525 

> <Gold.Protein.RotatedAtoms>
   -3.7664  -29.5142  -30.0158 H   0  0  0  0  0  0  0  0  0  0  0  0  # atno 3525 bound_to 925 
  -11.2713  -23.3679  -31.4249 H   0  0  0  0  0  0  0  0  0  0  0  0  # atno 3677 bound_to 1070
   -9.5852  -36.8854  -32.4448 H   0  0  0  0  0  0  0  0  0  0  0  0  # atno 3781 bound_to 1176
  -14.7934  -28.9123  -37.3403 H   0  0  0  0  0  0  0  0  0  0  0  0  # atno 3847 bound_to 1247
  -13.5951  -25.3494  -39.6188 H   0  0  0  0  0  0  0  0  0  0  0  0  # atno 4507 bound_to 1931
   -3.0761  -32.9272  -36.6547 H   0  0  0  0  0  0  0  0  0  0  0  0  # atno 4531 bound_to 1957
  -10.8343  -37.3699  -33.3683 LP  0  0  0  0  0  0  0  0  0  0  0  0  # atno 5205 bound_to 1176
   -9.6944  -36.3777  -33.9870 LP  0  0  0  0  0  0  0  0  0  0  0  0  # atno 5206 bound_to 1176
  -16.0716  -27.9127  -37.2182 LP  0  0  0  0  0  0  0  0  0  0  0  0  # atno 5215 bound_to 1247
  -14.7022  -27.4062  -37.9495 LP  0  0  0  0  0  0  0  0  0  0  0  0  # atno 5216 bound_to 1247
  -13.0969  -24.0006  -40.3807 LP  0  0  0  0  0  0  0  0  0  0  0  0  # atno 5217 bound_to 1931
  -12.4990  -24.3786  -38.9089 LP  0  0  0  0  0  0  0  0  0  0  0  0  # atno 5218 bound_to 1931
  -11.8327  -22.1741  -30.4720 LP  0  0  0  0  0  0  0  0  0  0  0  0  # atno 5224 bound_to 1070
  -12.7549  -23.4890  -30.7674 LP  0  0  0  0  0  0  0  0  0  0  0  0  # atno 5225 bound_to 1070

$$$$
EZ_20|Lisa_paper2_min|sdf|8|dock8
  -GOLD-  10182017 53D 1   1.00000     0.00000

 60 63  0  0  0  0  0  0  0  0  1 V2000
   -2.9699  -29.2323  -33.0946 C   0  0  0  0  0  0  0  0  0  0  0  0
   -3.1580  -30.6120  -33.1451 C   0  0  0  0  0  0  0  0  0  0  0  0
   -4.0378  -28.3576  -33.3151 C   0  0  0  0  0  0  0  0  0  0  0  0
   -4.4155  -31.1626  -33.4163 C   0  0  0  0  0  0  0  0  0  0  0  0
  -12.3396  -27.3982  -35.8349 C   0  0  0  0  0  0  0  0  0  0  0  0
  -11.2677  -25.2466  -36.0780 C   0  0  0  0  0  0  0  0  0  0  0  0
  -17.5220  -23.5591  -38.3956 C   0  0  0  0  0  0  0  0  0  0  0  0
  -11.2229  -27.8772  -35.1501 C   0  0  0  0  0  0  0  0  0  0  0  0
  -10.1509  -25.7258  -35.3932 C   0  0  0  0  0  0  0  0  0  0  0  0
  -18.8656  -23.1894  -38.3354 C   0  0  0  0  0  0  0  0  0  0  0  0
  -17.8412  -25.0273  -36.5037 C   0  0  0  0  0  0  0  0  0  0  0  0
   -5.3084  -28.8941  -33.5893 C   0  0  0  0  0  0  0  0  0  0  0  0
   -5.4813  -30.2780  -33.6363 C   0  0  0  0  0  0  0  0  0  0  0  0
  -12.3621  -26.0828  -36.2989 C   0  0  0  0  0  0  0  0  0  0  0  0
  -17.0098  -24.4781  -37.4798 C   0  0  0  0  0  0  0  0  0  0  0  0
  -10.1285  -27.0410  -34.9292 C   0  0  0  0  0  0  0  0  0  0  0  0
  -19.6971  -23.7385  -37.3593 C   0  0  0  0  0  0  0  0  0  0  0  0
  -19.1848  -24.6575  -36.4434 C   0  0  0  0  0  0  0  0  0  0  0  0
   -7.3684  -29.1945  -34.0296 C   0  0  0  0  0  0  0  0  0  0  0  0
   -7.5040  -31.6770  -34.0763 C   0  0  0  0  0  0  0  0  0  0  0  0
  -14.7874  -25.3271  -36.5649 C   0  0  0  0  0  0  0  0  0  0  0  0
   -7.7261  -34.1193  -35.5171 C   0  0  0  0  0  0  0  0  0  0  0  0
   -6.1022  -35.0341  -33.8331 C   0  0  0  0  0  0  0  0  0  0  0  0
   -8.3454  -34.1931  -33.0788 C   0  0  0  0  0  0  0  0  0  0  0  0
   -8.7913  -28.9143  -34.3304 C   0  0  0  0  0  0  0  0  0  0  0  0
   -7.2086  -34.0115  -34.0835 C   0  0  0  0  0  0  0  0  0  0  0  0
   -6.4868  -28.2426  -33.8354 N   0  0  0  0  0  0  0  0  0  0  0  0
   -6.8288  -30.4609  -33.9239 N   0  0  0  0  0  0  0  0  0  0  0  0
  -13.4790  -25.6036  -36.9839 N   0  0  0  0  0  0  0  0  0  0  0  0
  -15.6445  -24.8540  -37.5418 N   0  0  0  0  0  0  0  0  0  0  0  0
   -8.6967  -31.7144  -34.3299 O   0  0  0  0  0  0  0  0  0  0  0  0
   -9.0328  -27.5110  -34.2574 O   0  0  0  0  0  0  0  0  0  0  0  0
   -6.6423  -32.7105  -33.9006 O   0  0  0  0  0  0  0  0  0  0  0  0
  -15.1177  -25.4654  -34.9180 S   0  0  0  0  0  0  0  0  0  0  0  0
  -21.3514  -23.2380  -37.3346 Cl  0  0  0  0  0  0  0  0  0  0  0  0
  -20.1641  -25.3708  -35.2099 Cl  0  0  0  0  0  0  0  0  0  0  0  0
   -1.9830  -28.8305  -32.8820 H   0  0  0  0  0  0  0  0  0  0  0  0
   -2.3132  -31.2738  -32.9710 H   0  0  0  0  0  0  0  0  0  0  0  0
   -3.8837  -27.2838  -33.2746 H   0  0  0  0  0  0  0  0  0  0  0  0
   -4.5353  -32.2390  -33.4501 H   0  0  0  0  0  0  0  0  0  0  0  0
  -13.1870  -28.0585  -36.0012 H   0  0  0  0  0  0  0  0  0  0  0  0
  -11.2740  -24.2199  -36.4351 H   0  0  0  0  0  0  0  0  0  0  0  0
  -16.8831  -23.1264  -39.1612 H   0  0  0  0  0  0  0  0  0  0  0  0
  -11.2115  -28.9027  -34.7911 H   0  0  0  0  0  0  0  0  0  0  0  0
   -9.3014  -25.0696  -35.2243 H   0  0  0  0  0  0  0  0  0  0  0  0
  -19.2480  -22.4729  -39.0582 H   0  0  0  0  0  0  0  0  0  0  0  0
  -17.4355  -25.7427  -35.7911 H   0  0  0  0  0  0  0  0  0  0  0  0
   -7.0060  -33.6926  -36.2244 H   0  0  0  0  0  0  0  0  0  0  0  0
   -7.9166  -35.1597  -35.8001 H   0  0  0  0  0  0  0  0  0  0  0  0
   -8.6551  -33.5512  -35.6413 H   0  0  0  0  0  0  0  0  0  0  0  0
   -5.2891  -34.9146  -34.5583 H   0  0  0  0  0  0  0  0  0  0  0  0
   -6.4795  -36.0556  -33.9578 H   0  0  0  0  0  0  0  0  0  0  0  0
   -5.6849  -34.9392  -32.8254 H   0  0  0  0  0  0  0  0  0  0  0  0
   -9.2685  -33.7291  -33.4446 H   0  0  0  0  0  0  0  0  0  0  0  0
   -8.5449  -35.2516  -32.8826 H   0  0  0  0  0  0  0  0  0  0  0  0
   -8.1078  -33.7015  -32.1284 H   0  0  0  0  0  0  0  0  0  0  0  0
   -9.0742  -29.2596  -35.3384 H   0  0  0  0  0  0  0  0  0  0  0  0
   -9.4649  -29.4185  -33.6182 H   0  0  0  0  0  0  0  0  0  0  0  0
  -13.3264  -25.3780  -37.9744 H   0  0  0  0  0  0  0  0  0  0  0  0
  -15.2019  -24.6505  -38.4346 H   0  0  0  0  0  0  0  0  0  0  0  0
  1  2  2  0  0  0  0
  1  3  1  0  0  0  0
  2  4  1  0  0  0  0
  3 12  2  0  0  0  0
  4 13  2  0  0  0  0
  5  8  1  0  0  0  0
  5 14  2  0  0  0  0
  6  9  2  0  0  0  0
  6 14  1  0  0  0  0
  7 10  1  0  0  0  0
  7 15  2  0  0  0  0
  8 16  2  0  0  0  0
  9 16  1  0  0  0  0
 10 17  2  0  0  0  0
 11 15  1  0  0  0  0
 11 18  2  0  0  0  0
 12 13  1  0  0  0  0
 12 27  1  0  0  0  0
 13 28  1  0  0  0  0
 14 29  1  0  0  0  0
 15 30  1  0  0  0  0
 16 32  1  0  0  0  0
 17 18  1  0  0  0  0
 17 35  1  0  0  0  0
 18 36  1  0  0  0  0
 19 25  1  0  0  0  0
 19 27  2  0  0  0  0
 19 28  1  0  0  0  0
 20 28  1  0  0  0  0
 20 31  2  0  0  0  0
 20 33  1  0  0  0  0
 21 29  1  0  0  0  0
 21 30  1  0  0  0  0
 21 34  2  0  0  0  0
 22 26  1  0  0  0  0
 23 26  1  0  0  0  0
 24 26  1  0  0  0  0
 25 32  1  0  0  0  0
 26 33  1  0  0  0  0
  1 37  1  0  0  0  0
  2 38  1  0  0  0  0
  3 39  1  0  0  0  0
  4 40  1  0  0  0  0
  5 41  1  0  0  0  0
  6 42  1  0  0  0  0
  7 43  1  0  0  0  0
  8 44  1  0  0  0  0
  9 45  1  0  0  0  0
 10 46  1  0  0  0  0
 11 47  1  0  0  0  0
 22 48  1  0  0  0  0
 22 49  1  0  0  0  0
 22 50  1  0  0  0  0
 23 51  1  0  0  0  0
 23 52  1  0  0  0  0
 23 53  1  0  0  0  0
 24 54  1  0  0  0  0
 24 55  1  0  0  0  0
 24 56  1  0  0  0  0
 25 57  1  0  0  0  0
 25 58  1  0  0  0  0
 29 59  1  0  0  0  0
 30 60  1  0  0  0  0
M  END
> <Name>
EZ_20

> <SourceTag>
EZ_20

> <Activity_FLAP>
100

> <Activity_sEH>
19.1

> <Gold.Version>
5.2

> <Gold.Id.Protein>
6HGV|6HGV_protein|mol2

> <Gold.Goldscore.Fitness>
88.2763

> <Gold.Goldscore.Internal.Vdw>
-10.6275

> <Gold.Goldscore.Internal.Torsion>
-9.9713

> <Gold.Goldscore.External.Vdw>
63.8435

> <Gold.Goldscore.Internal.HBond>
0.0000

> <Gold.Goldscore.External.HBond>
2.1012

> <Gold.Goldscore.Internal.Correction>
-18.9890

> <Gold.Goldscore.Hbonds>
donor molecule, donor type, donor heavy atom, donor atom, acceptor molecule, acceptor atom, score
      L1  H    29    59       P1  1931  1.00
      L1  H    30    60       P1  1931  0.05

> <Gold.Goldscore.Internal.Vdw.Weighted>
-10.6275

> <Gold.Goldscore.Internal.Torsion.Weighted>
-9.9713

> <Gold.Goldscore.External.Vdw.Weighted>
87.7849

> <Gold.Goldscore.Internal.HBond.Weighted>
0.0000

> <Gold.Goldscore.External.HBond.Weighted>
2.1012

> <Gold.Goldscore.Internal.Correction.Weighted>
-18.9890

> <Gold.Protein.RotatedTorsions>
[ 3781 1176 1175 1172 ] final   26.51 input   60.00 | X-H torsion
[ 3847 1247 1246 1244 ] final  -60.43 input   60.00 | X-H torsion
[ 4507 1931 1930 1928 ] final -152.46 input   60.00 | X-H torsion
[ 3677 1070 1069 1066 ] final -162.21 input   60.00 | X-H torsion
[ 3525  925  924  922 ] final  -36.63 input   59.99 | X-H torsion
[ 4531 1957 1955 1953 ] final   26.52 input   60.00 | X-H torsion

> <Gold.Protein.ActiveResidues>
 PHE267  PRO268  MET310  ASP335  TRP336  MET339  TYR343  THR360  PRO361  ILE363 
 PRO371  SER374  ILE375  ASN378  PHE381  TYR383  GLN384  PHE387  LEU408  LEU417 
 MET419  LEU428  TYR466  MET469  ASN472  ASP496  VAL498  LEU499  MET503  HIS524 
 TRP525 

> <Gold.Protein.RotatedAtoms>
   -3.7724  -29.5208  -29.9145 H   0  0  0  0  0  0  0  0  0  0  0  0  # atno 3525 bound_to 925 
  -11.1128  -23.0216  -31.3056 H   0  0  0  0  0  0  0  0  0  0  0  0  # atno 3677 bound_to 1070
  -10.8160  -37.3968  -33.2718 H   0  0  0  0  0  0  0  0  0  0  0  0  # atno 3781 bound_to 1176
  -16.0617  -27.8635  -37.2437 H   0  0  0  0  0  0  0  0  0  0  0  0  # atno 3847 bound_to 1247
  -13.1709  -24.0775  -40.4201 H   0  0  0  0  0  0  0  0  0  0  0  0  # atno 4507 bound_to 1931
   -3.0632  -32.8759  -36.6563 H   0  0  0  0  0  0  0  0  0  0  0  0  # atno 4531 bound_to 1957
   -9.7744  -36.4109  -34.0407 LP  0  0  0  0  0  0  0  0  0  0  0  0  # atno 5205 bound_to 1176
   -9.5148  -36.8217  -32.4817 LP  0  0  0  0  0  0  0  0  0  0  0  0  # atno 5206 bound_to 1176
  -14.6591  -27.4419  -37.9528 LP  0  0  0  0  0  0  0  0  0  0  0  0  # atno 5215 bound_to 1247
  -14.8375  -28.9333  -37.3122 LP  0  0  0  0  0  0  0  0  0  0  0  0  # atno 5216 bound_to 1247
  -12.4680  -24.2859  -38.9673 LP  0  0  0  0  0  0  0  0  0  0  0  0  # atno 5217 bound_to 1931
  -13.5551  -25.3743  -39.5153 LP  0  0  0  0  0  0  0  0  0  0  0  0  # atno 5218 bound_to 1931
  -12.2011  -22.2789  -30.3505 LP  0  0  0  0  0  0  0  0  0  0  0  0  # atno 5224 bound_to 1070
  -12.5460  -23.7329  -31.0090 LP  0  0  0  0  0  0  0  0  0  0  0  0  # atno 5225 bound_to 1070

$$$$
EZ_20|Lisa_paper2_min|sdf|8|dock1
  -GOLD-  10182017 33D 1   1.00000     0.00000

 60 63  0  0  0  0  0  0  0  0  1 V2000
   -2.7067  -30.2229  -32.5698 C   0  0  0  0  0  0  0  0  0  0  0  0
   -3.1880  -31.5271  -32.4770 C   0  0  0  0  0  0  0  0  0  0  0  0
   -3.5029  -29.2041  -33.1011 C   0  0  0  0  0  0  0  0  0  0  0  0
   -4.4772  -31.8564  -32.9103 C   0  0  0  0  0  0  0  0  0  0  0  0
  -10.8522  -25.1436  -34.7859 C   0  0  0  0  0  0  0  0  0  0  0  0
  -11.4083  -26.9722  -36.2639 C   0  0  0  0  0  0  0  0  0  0  0  0
  -17.4094  -25.0761  -35.1494 C   0  0  0  0  0  0  0  0  0  0  0  0
   -9.6272  -25.7464  -34.5009 C   0  0  0  0  0  0  0  0  0  0  0  0
  -10.1831  -27.5750  -35.9788 C   0  0  0  0  0  0  0  0  0  0  0  0
  -18.7966  -25.2095  -35.2083 C   0  0  0  0  0  0  0  0  0  0  0  0
  -17.3345  -24.7948  -37.5478 C   0  0  0  0  0  0  0  0  0  0  0  0
   -4.8009  -29.5177  -33.5416 C   0  0  0  0  0  0  0  0  0  0  0  0
   -5.2692  -30.8285  -33.4420 C   0  0  0  0  0  0  0  0  0  0  0  0
  -11.7429  -25.7564  -35.6675 C   0  0  0  0  0  0  0  0  0  0  0  0
  -16.6783  -24.8687  -36.3191 C   0  0  0  0  0  0  0  0  0  0  0  0
   -9.2925  -26.9621  -35.0975 C   0  0  0  0  0  0  0  0  0  0  0  0
  -19.4528  -25.1356  -36.4370 C   0  0  0  0  0  0  0  0  0  0  0  0
  -18.7217  -24.9283  -37.6067 C   0  0  0  0  0  0  0  0  0  0  0  0
   -6.7789  -29.4754  -34.3250 C   0  0  0  0  0  0  0  0  0  0  0  0
   -7.4570  -31.8548  -34.0764 C   0  0  0  0  0  0  0  0  0  0  0  0
  -14.2839  -25.6331  -35.8953 C   0  0  0  0  0  0  0  0  0  0  0  0
   -6.5338  -35.3663  -33.7454 C   0  0  0  0  0  0  0  0  0  0  0  0
   -8.8191  -34.3806  -33.4057 C   0  0  0  0  0  0  0  0  0  0  0  0
   -7.6459  -34.0891  -35.6073 C   0  0  0  0  0  0  0  0  0  0  0  0
   -8.0366  -28.9743  -34.9258 C   0  0  0  0  0  0  0  0  0  0  0  0
   -7.4670  -34.2078  -34.0944 C   0  0  0  0  0  0  0  0  0  0  0  0
   -5.7492  -28.6971  -34.0903 N   0  0  0  0  0  0  0  0  0  0  0  0
   -6.5600  -30.7875  -33.9558 N   0  0  0  0  0  0  0  0  0  0  0  0
  -12.9683  -25.1537  -35.9525 N   0  0  0  0  0  0  0  0  0  0  0  0
  -15.2687  -24.7325  -36.2586 N   0  0  0  0  0  0  0  0  0  0  0  0
   -8.5718  -31.6982  -34.5463 O   0  0  0  0  0  0  0  0  0  0  0  0
   -8.0905  -27.5537  -34.8178 O   0  0  0  0  0  0  0  0  0  0  0  0
   -6.8874  -32.9938  -33.6076 O   0  0  0  0  0  0  0  0  0  0  0  0
  -14.5171  -27.1785  -35.2646 S   0  0  0  0  0  0  0  0  0  0  0  0
  -21.1724  -25.3117  -36.4446 Cl  0  0  0  0  0  0  0  0  0  0  0  0
  -19.4771  -24.8298  -39.1588 Cl  0  0  0  0  0  0  0  0  0  0  0  0
   -1.7017  -29.9937  -32.2260 H   0  0  0  0  0  0  0  0  0  0  0  0
   -2.5514  -32.3041  -32.0609 H   0  0  0  0  0  0  0  0  0  0  0  0
   -3.1210  -28.1903  -33.1707 H   0  0  0  0  0  0  0  0  0  0  0  0
   -4.8277  -32.8784  -32.8273 H   0  0  0  0  0  0  0  0  0  0  0  0
  -11.1026  -24.1960  -34.3156 H   0  0  0  0  0  0  0  0  0  0  0  0
  -12.0945  -27.4590  -36.9523 H   0  0  0  0  0  0  0  0  0  0  0  0
  -16.9080  -25.1337  -34.1866 H   0  0  0  0  0  0  0  0  0  0  0  0
   -8.9376  -25.2641  -33.8135 H   0  0  0  0  0  0  0  0  0  0  0  0
   -9.9282  -28.5221  -36.4466 H   0  0  0  0  0  0  0  0  0  0  0  0
  -19.3503  -25.3691  -34.2865 H   0  0  0  0  0  0  0  0  0  0  0  0
  -16.7586  -24.6343  -38.4571 H   0  0  0  0  0  0  0  0  0  0  0  0
   -7.0069  -36.3289  -33.9698 H   0  0  0  0  0  0  0  0  0  0  0  0
   -5.5906  -35.3051  -34.2980 H   0  0  0  0  0  0  0  0  0  0  0  0
   -6.3067  -35.3761  -32.6731 H   0  0  0  0  0  0  0  0  0  0  0  0
   -9.3511  -35.2523  -33.8038 H   0  0  0  0  0  0  0  0  0  0  0  0
   -9.4646  -33.5143  -33.5901 H   0  0  0  0  0  0  0  0  0  0  0  0
   -8.7083  -34.5064  -32.3238 H   0  0  0  0  0  0  0  0  0  0  0  0
   -8.6031  -33.6145  -35.8518 H   0  0  0  0  0  0  0  0  0  0  0  0
   -6.8424  -33.5018  -36.0635 H   0  0  0  0  0  0  0  0  0  0  0  0
   -7.6630  -35.0794  -36.0766 H   0  0  0  0  0  0  0  0  0  0  0  0
   -8.1176  -29.2412  -35.9923 H   0  0  0  0  0  0  0  0  0  0  0  0
   -8.9233  -29.3933  -34.4224 H   0  0  0  0  0  0  0  0  0  0  0  0
  -12.9207  -24.1657  -36.2300 H   0  0  0  0  0  0  0  0  0  0  0  0
  -14.9398  -23.7838  -36.4198 H   0  0  0  0  0  0  0  0  0  0  0  0
  1  2  2  0  0  0  0
  1  3  1  0  0  0  0
  2  4  1  0  0  0  0
  3 12  2  0  0  0  0
  4 13  2  0  0  0  0
  5  8  1  0  0  0  0
  5 14  2  0  0  0  0
  6  9  2  0  0  0  0
  6 14  1  0  0  0  0
  7 10  1  0  0  0  0
  7 15  2  0  0  0  0
  8 16  2  0  0  0  0
  9 16  1  0  0  0  0
 10 17  2  0  0  0  0
 11 15  1  0  0  0  0
 11 18  2  0  0  0  0
 12 13  1  0  0  0  0
 12 27  1  0  0  0  0
 13 28  1  0  0  0  0
 14 29  1  0  0  0  0
 15 30  1  0  0  0  0
 16 32  1  0  0  0  0
 17 18  1  0  0  0  0
 17 35  1  0  0  0  0
 18 36  1  0  0  0  0
 19 25  1  0  0  0  0
 19 27  2  0  0  0  0
 19 28  1  0  0  0  0
 20 28  1  0  0  0  0
 20 31  2  0  0  0  0
 20 33  1  0  0  0  0
 21 29  1  0  0  0  0
 21 30  1  0  0  0  0
 21 34  2  0  0  0  0
 22 26  1  0  0  0  0
 23 26  1  0  0  0  0
 24 26  1  0  0  0  0
 25 32  1  0  0  0  0
 26 33  1  0  0  0  0
  1 37  1  0  0  0  0
  2 38  1  0  0  0  0
  3 39  1  0  0  0  0
  4 40  1  0  0  0  0
  5 41  1  0  0  0  0
  6 42  1  0  0  0  0
  7 43  1  0  0  0  0
  8 44  1  0  0  0  0
  9 45  1  0  0  0  0
 10 46  1  0  0  0  0
 11 47  1  0  0  0  0
 22 48  1  0  0  0  0
 22 49  1  0  0  0  0
 22 50  1  0  0  0  0
 23 51  1  0  0  0  0
 23 52  1  0  0  0  0
 23 53  1  0  0  0  0
 24 54  1  0  0  0  0
 24 55  1  0  0  0  0
 24 56  1  0  0  0  0
 25 57  1  0  0  0  0
 25 58  1  0  0  0  0
 29 59  1  0  0  0  0
 30 60  1  0  0  0  0
M  END
> <Name>
EZ_20

> <SourceTag>
EZ_20

> <Activity_FLAP>
100

> <Activity_sEH>
19.1

> <Gold.Version>
5.2

> <Gold.Id.Protein>
6HGV|6HGV_protein|mol2

> <Gold.Goldscore.Fitness>
87.7987

> <Gold.Goldscore.Internal.Vdw>
-10.0616

> <Gold.Goldscore.Internal.Torsion>
-14.2818

> <Gold.Goldscore.External.Vdw>
65.8264

> <Gold.Goldscore.Internal.HBond>
0.0000

> <Gold.Goldscore.External.HBond>
1.6572

> <Gold.Goldscore.Internal.Correction>
-19.9736

> <Gold.Goldscore.Hbonds>
donor molecule, donor type, donor heavy atom, donor atom, acceptor molecule, acceptor atom, score
      L1  H    29    59       P1   854  0.27
      L1  H    30    60       P1   853  0.01

> <Gold.Goldscore.Internal.Vdw.Weighted>
-10.0616

> <Gold.Goldscore.Internal.Torsion.Weighted>
-14.2818

> <Gold.Goldscore.External.Vdw.Weighted>
90.5113

> <Gold.Goldscore.Internal.HBond.Weighted>
0.0000

> <Gold.Goldscore.External.HBond.Weighted>
1.6572

> <Gold.Goldscore.Internal.Correction.Weighted>
-19.9736

> <Gold.Protein.RotatedTorsions>
[ 3781 1176 1175 1172 ] final  106.50 input   60.00 | X-H torsion
[ 3847 1247 1246 1244 ] final   62.68 input   60.00 | X-H torsion
[ 4507 1931 1930 1928 ] final    0.54 input   60.00 | X-H torsion
[ 3677 1070 1069 1066 ] final -122.21 input   60.00 | X-H torsion
[ 3525  925  924  922 ] final  -26.48 input   59.99 | X-H torsion
[ 4531 1957 1955 1953 ] final   -6.75 input   60.00 | X-H torsion

> <Gold.Protein.ActiveResidues>
 PHE267  PRO268  MET310  ASP335  TRP336  MET339  TYR343  THR360  PRO361  ILE363 
 PRO371  SER374  ILE375  ASN378  PHE381  TYR383  GLN384  PHE387  LEU408  LEU417 
 MET419  LEU428  TYR466  MET469  ASN472  ASP496  VAL498  LEU499  MET503  HIS524 
 TRP525 

> <Gold.Protein.RotatedAtoms>
   -3.7573  -29.5123  -30.0792 H   0  0  0  0  0  0  0  0  0  0  0  0  # atno 3525 bound_to 925 
  -11.4360  -23.5552  -31.4506 H   0  0  0  0  0  0  0  0  0  0  0  0  # atno 3677 bound_to 1070
  -10.0250  -37.2009  -32.3862 H   0  0  0  0  0  0  0  0  0  0  0  0  # atno 3781 bound_to 1176
  -14.7975  -28.9139  -37.3381 H   0  0  0  0  0  0  0  0  0  0  0  0  # atno 3847 bound_to 1247
  -13.2512  -25.3088  -39.0814 H   0  0  0  0  0  0  0  0  0  0  0  0  # atno 4507 bound_to 1931
   -2.7792  -32.4238  -36.7025 H   0  0  0  0  0  0  0  0  0  0  0  0  # atno 4531 bound_to 1957
  -10.7353  -37.1240  -33.8483 LP  0  0  0  0  0  0  0  0  0  0  0  0  # atno 5205 bound_to 1176
   -9.3505  -36.3059  -33.5660 LP  0  0  0  0  0  0  0  0  0  0  0  0  # atno 5206 bound_to 1176
  -16.0713  -27.9081  -37.2201 LP  0  0  0  0  0  0  0  0  0  0  0  0  # atno 5215 bound_to 1247
  -14.6983  -27.4092  -37.9499 LP  0  0  0  0  0  0  0  0  0  0  0  0  # atno 5216 bound_to 1247
  -13.4979  -24.4965  -40.4696 LP  0  0  0  0  0  0  0  0  0  0  0  0  # atno 5217 bound_to 1931
  -12.4444  -23.9236  -39.3612 LP  0  0  0  0  0  0  0  0  0  0  0  0  # atno 5218 bound_to 1931
  -11.6090  -22.1858  -30.5886 LP  0  0  0  0  0  0  0  0  0  0  0  0  # atno 5224 bound_to 1070
  -12.8127  -23.2887  -30.6249 LP  0  0  0  0  0  0  0  0  0  0  0  0  # atno 5225 bound_to 1070

$$$$
EZ_20|Lisa_paper2_min|sdf|8|dock6
  -GOLD-  10182017 43D 1   1.00000     0.00000

 60 63  0  0  0  0  0  0  0  0  1 V2000
   -3.6684  -32.0780  -31.7680 C   0  0  0  0  0  0  0  0  0  0  0  0
   -4.5764  -32.1178  -30.7120 C   0  0  0  0  0  0  0  0  0  0  0  0
   -4.0215  -31.5024  -32.9919 C   0  0  0  0  0  0  0  0  0  0  0  0
   -5.8638  -31.5852  -30.8426 C   0  0  0  0  0  0  0  0  0  0  0  0
  -10.6054  -25.3214  -34.9425 C   0  0  0  0  0  0  0  0  0  0  0  0
  -10.8845  -27.0265  -36.6312 C   0  0  0  0  0  0  0  0  0  0  0  0
  -16.3732  -23.7381  -38.6691 C   0  0  0  0  0  0  0  0  0  0  0  0
   -9.5501  -26.0446  -34.3866 C   0  0  0  0  0  0  0  0  0  0  0  0
   -9.8292  -27.7497  -36.0753 C   0  0  0  0  0  0  0  0  0  0  0  0
  -17.7512  -23.6319  -38.8571 C   0  0  0  0  0  0  0  0  0  0  0  0
  -16.7443  -24.6414  -36.4592 C   0  0  0  0  0  0  0  0  0  0  0  0
   -5.3115  -30.9627  -33.1405 C   0  0  0  0  0  0  0  0  0  0  0  0
   -6.2099  -31.0097  -32.0738 C   0  0  0  0  0  0  0  0  0  0  0  0
  -11.2727  -25.8124  -36.0648 C   0  0  0  0  0  0  0  0  0  0  0  0
  -15.8698  -24.2429  -37.4702 C   0  0  0  0  0  0  0  0  0  0  0  0
   -9.1619  -27.2587  -34.9531 C   0  0  0  0  0  0  0  0  0  0  0  0
  -18.6258  -24.0304  -37.8463 C   0  0  0  0  0  0  0  0  0  0  0  0
  -18.1224  -24.5351  -36.6473 C   0  0  0  0  0  0  0  0  0  0  0  0
   -7.0890  -30.0352  -33.8535 C   0  0  0  0  0  0  0  0  0  0  0  0
   -8.5637  -30.2001  -31.8581 C   0  0  0  0  0  0  0  0  0  0  0  0
  -13.7144  -25.2954  -36.6076 C   0  0  0  0  0  0  0  0  0  0  0  0
  -10.9827  -28.9291  -30.9135 C   0  0  0  0  0  0  0  0  0  0  0  0
  -11.6898  -29.0322  -33.3216 C   0  0  0  0  0  0  0  0  0  0  0  0
  -11.1761  -31.1525  -32.0771 C   0  0  0  0  0  0  0  0  0  0  0  0
   -8.0479  -29.3500  -34.7505 C   0  0  0  0  0  0  0  0  0  0  0  0
  -10.8255  -29.6740  -32.2383 C   0  0  0  0  0  0  0  0  0  0  0  0
   -5.8744  -30.3567  -34.2312 N   0  0  0  0  0  0  0  0  0  0  0  0
   -7.3648  -30.4015  -32.5513 N   0  0  0  0  0  0  0  0  0  0  0  0
  -12.3283  -25.0892  -36.6208 N   0  0  0  0  0  0  0  0  0  0  0  0
  -14.4693  -24.3513  -37.2798 N   0  0  0  0  0  0  0  0  0  0  0  0
   -8.6991  -30.5669  -30.7025 O   0  0  0  0  0  0  0  0  0  0  0  0
   -8.1266  -27.9683  -34.4078 O   0  0  0  0  0  0  0  0  0  0  0  0
   -9.4618  -29.5723  -32.6587 O   0  0  0  0  0  0  0  0  0  0  0  0
  -14.2982  -26.5682  -35.6699 S   0  0  0  0  0  0  0  0  0  0  0  0
  -20.3221  -23.8711  -38.1386 Cl  0  0  0  0  0  0  0  0  0  0  0  0
  -19.1550  -25.0431  -35.3570 Cl  0  0  0  0  0  0  0  0  0  0  0  0
   -2.6747  -32.4988  -31.6404 H   0  0  0  0  0  0  0  0  0  0  0  0
   -4.2807  -32.5709  -29.7689 H   0  0  0  0  0  0  0  0  0  0  0  0
   -3.3089  -31.4753  -33.8105 H   0  0  0  0  0  0  0  0  0  0  0  0
   -6.5512  -31.6289  -30.0061 H   0  0  0  0  0  0  0  0  0  0  0  0
  -10.8994  -24.3762  -34.4930 H   0  0  0  0  0  0  0  0  0  0  0  0
  -11.3973  -27.4190  -37.5058 H   0  0  0  0  0  0  0  0  0  0  0  0
  -15.7004  -23.4262  -39.4638 H   0  0  0  0  0  0  0  0  0  0  0  0
   -9.0342  -25.6568  -33.5125 H   0  0  0  0  0  0  0  0  0  0  0  0
   -9.5315  -28.6949  -36.5211 H   0  0  0  0  0  0  0  0  0  0  0  0
  -18.1258  -23.2376  -39.7985 H   0  0  0  0  0  0  0  0  0  0  0  0
  -16.3456  -25.0332  -35.5256 H   0  0  0  0  0  0  0  0  0  0  0  0
  -10.4357  -27.9799  -30.9329 H   0  0  0  0  0  0  0  0  0  0  0  0
  -12.0341  -28.7201  -30.6906 H   0  0  0  0  0  0  0  0  0  0  0  0
  -10.5624  -29.5112  -30.0853 H   0  0  0  0  0  0  0  0  0  0  0  0
  -12.7549  -29.1516  -33.0925 H   0  0  0  0  0  0  0  0  0  0  0  0
  -11.5260  -29.5181  -34.2903 H   0  0  0  0  0  0  0  0  0  0  0  0
  -11.4758  -27.9639  -33.4290 H   0  0  0  0  0  0  0  0  0  0  0  0
  -10.7057  -31.5704  -31.1797 H   0  0  0  0  0  0  0  0  0  0  0  0
  -12.2578  -31.3046  -32.0031 H   0  0  0  0  0  0  0  0  0  0  0  0
  -10.7994  -31.7369  -32.9243 H   0  0  0  0  0  0  0  0  0  0  0  0
   -7.7468  -29.4250  -35.8084 H   0  0  0  0  0  0  0  0  0  0  0  0
   -9.0585  -29.7835  -34.6735 H   0  0  0  0  0  0  0  0  0  0  0  0
  -12.0629  -24.2261  -37.1104 H   0  0  0  0  0  0  0  0  0  0  0  0
  -13.9450  -23.5471  -37.6155 H   0  0  0  0  0  0  0  0  0  0  0  0
  1  2  2  0  0  0  0
  1  3  1  0  0  0  0
  2  4  1  0  0  0  0
  3 12  2  0  0  0  0
  4 13  2  0  0  0  0
  5  8  1  0  0  0  0
  5 14  2  0  0  0  0
  6  9  2  0  0  0  0
  6 14  1  0  0  0  0
  7 10  1  0  0  0  0
  7 15  2  0  0  0  0
  8 16  2  0  0  0  0
  9 16  1  0  0  0  0
 10 17  2  0  0  0  0
 11 15  1  0  0  0  0
 11 18  2  0  0  0  0
 12 13  1  0  0  0  0
 12 27  1  0  0  0  0
 13 28  1  0  0  0  0
 14 29  1  0  0  0  0
 15 30  1  0  0  0  0
 16 32  1  0  0  0  0
 17 18  1  0  0  0  0
 17 35  1  0  0  0  0
 18 36  1  0  0  0  0
 19 25  1  0  0  0  0
 19 27  2  0  0  0  0
 19 28  1  0  0  0  0
 20 28  1  0  0  0  0
 20 31  2  0  0  0  0
 20 33  1  0  0  0  0
 21 29  1  0  0  0  0
 21 30  1  0  0  0  0
 21 34  2  0  0  0  0
 22 26  1  0  0  0  0
 23 26  1  0  0  0  0
 24 26  1  0  0  0  0
 25 32  1  0  0  0  0
 26 33  1  0  0  0  0
  1 37  1  0  0  0  0
  2 38  1  0  0  0  0
  3 39  1  0  0  0  0
  4 40  1  0  0  0  0
  5 41  1  0  0  0  0
  6 42  1  0  0  0  0
  7 43  1  0  0  0  0
  8 44  1  0  0  0  0
  9 45  1  0  0  0  0
 10 46  1  0  0  0  0
 11 47  1  0  0  0  0
 22 48  1  0  0  0  0
 22 49  1  0  0  0  0
 22 50  1  0  0  0  0
 23 51  1  0  0  0  0
 23 52  1  0  0  0  0
 23 53  1  0  0  0  0
 24 54  1  0  0  0  0
 24 55  1  0  0  0  0
 24 56  1  0  0  0  0
 25 57  1  0  0  0  0
 25 58  1  0  0  0  0
 29 59  1  0  0  0  0
 30 60  1  0  0  0  0
M  END
> <Name>
EZ_20

> <SourceTag>
EZ_20

> <Activity_FLAP>
100

> <Activity_sEH>
19.1

> <Gold.Version>
5.2

> <Gold.Id.Protein>
6HGV|6HGV_protein|mol2

> <Gold.Goldscore.Fitness>
86.1240

> <Gold.Goldscore.Internal.Vdw>
-12.8363

> <Gold.Goldscore.Internal.Torsion>
-11.7762

> <Gold.Goldscore.External.Vdw>
66.7255

> <Gold.Goldscore.Internal.HBond>
0.0000

> <Gold.Goldscore.External.HBond>
0.0000

> <Gold.Goldscore.Internal.Correction>
-18.9890

> <Gold.Goldscore.Internal.Vdw.Weighted>
-12.8363

> <Gold.Goldscore.Internal.Torsion.Weighted>
-11.7762

> <Gold.Goldscore.External.Vdw.Weighted>
91.7476

> <Gold.Goldscore.Internal.HBond.Weighted>
0.0000

> <Gold.Goldscore.External.HBond.Weighted>
0.0000

> <Gold.Goldscore.Internal.Correction.Weighted>
-18.9890

> <Gold.Protein.RotatedTorsions>
[ 3781 1176 1175 1172 ] final  134.99 input   60.00 | X-H torsion
[ 3847 1247 1246 1244 ] final   90.26 input   60.00 | X-H torsion
[ 4507 1931 1930 1928 ] final  -45.99 input   60.00 | X-H torsion
[ 3677 1070 1069 1066 ] final -125.30 input   60.00 | X-H torsion
[ 3525  925  924  922 ] final   -6.04 input   59.99 | X-H torsion
[ 4531 1957 1955 1953 ] final   18.80 input   60.00 | X-H torsion

> <Gold.Protein.ActiveResidues>
 PHE267  PRO268  MET310  ASP335  TRP336  MET339  TYR343  THR360  PRO361  ILE363 
 PRO371  SER374  ILE375  ASN378  PHE381  TYR383  GLN384  PHE387  LEU408  LEU417 
 MET419  LEU428  TYR466  MET469  ASN472  ASP496  VAL498  LEU499  MET503  HIS524 
 TRP525 

> <Gold.Protein.RotatedAtoms>
   -3.6481  -29.5313  -30.3924 H   0  0  0  0  0  0  0  0  0  0  0  0  # atno 3525 bound_to 925 
  -11.3995  -23.5202  -31.4486 H   0  0  0  0  0  0  0  0  0  0  0  0  # atno 3677 bound_to 1070
   -9.6478  -36.9382  -32.4154 H   0  0  0  0  0  0  0  0  0  0  0  0  # atno 3781 bound_to 1176
  -14.4775  -28.6866  -37.5506 H   0  0  0  0  0  0  0  0  0  0  0  0  # atno 3847 bound_to 1247
  -13.6310  -25.3194  -39.7160 H   0  0  0  0  0  0  0  0  0  0  0  0  # atno 4507 bound_to 1931
   -3.0212  -32.7574  -36.6622 H   0  0  0  0  0  0  0  0  0  0  0  0  # atno 4531 bound_to 1957
  -10.8368  -37.3407  -33.4509 LP  0  0  0  0  0  0  0  0  0  0  0  0  # atno 5205 bound_to 1176
   -9.6289  -36.3538  -33.9340 LP  0  0  0  0  0  0  0  0  0  0  0  0  # atno 5206 bound_to 1176
  -15.9965  -28.3311  -37.0877 LP  0  0  0  0  0  0  0  0  0  0  0  0  # atno 5215 bound_to 1247
  -15.0954  -27.2151  -37.8683 LP  0  0  0  0  0  0  0  0  0  0  0  0  # atno 5216 bound_to 1247
  -13.0236  -23.9397  -40.3287 LP  0  0  0  0  0  0  0  0  0  0  0  0  # atno 5217 bound_to 1931
  -12.5362  -24.4698  -38.8630 LP  0  0  0  0  0  0  0  0  0  0  0  0  # atno 5218 bound_to 1931
  -11.6525  -22.1786  -30.5631 LP  0  0  0  0  0  0  0  0  0  0  0  0  # atno 5224 bound_to 1070
  -12.8060  -23.3311  -30.6523 LP  0  0  0  0  0  0  0  0  0  0  0  0  # atno 5225 bound_to 1070

$$$$
EZ_20|Lisa_paper2_min|sdf|8|dock4
  -GOLD-  10182017 43D 1   1.00000     0.00000

 60 63  0  0  0  0  0  0  0  0  1 V2000
   -3.6110  -31.5586  -31.9200 C   0  0  0  0  0  0  0  0  0  0  0  0
   -4.5412  -31.8493  -30.9242 C   0  0  0  0  0  0  0  0  0  0  0  0
   -3.9922  -30.8658  -33.0728 C   0  0  0  0  0  0  0  0  0  0  0  0
   -5.8793  -31.4586  -31.0460 C   0  0  0  0  0  0  0  0  0  0  0  0
  -11.3193  -26.8966  -36.3958 C   0  0  0  0  0  0  0  0  0  0  0  0
  -11.4156  -25.4536  -34.4605 C   0  0  0  0  0  0  0  0  0  0  0  0
  -17.4741  -25.0244  -35.8521 C   0  0  0  0  0  0  0  0  0  0  0  0
  -10.1961  -27.5318  -35.8664 C   0  0  0  0  0  0  0  0  0  0  0  0
  -10.2922  -26.0889  -33.9311 C   0  0  0  0  0  0  0  0  0  0  0  0
  -18.8636  -25.0068  -35.9725 C   0  0  0  0  0  0  0  0  0  0  0  0
  -17.2675  -24.2033  -38.1148 C   0  0  0  0  0  0  0  0  0  0  0  0
   -5.3332  -30.4659  -33.2115 C   0  0  0  0  0  0  0  0  0  0  0  0
   -6.2533  -30.7641  -32.2056 C   0  0  0  0  0  0  0  0  0  0  0  0
  -11.9292  -25.8574  -35.6929 C   0  0  0  0  0  0  0  0  0  0  0  0
  -16.6760  -24.6226  -36.9232 C   0  0  0  0  0  0  0  0  0  0  0  0
   -9.6825  -27.1280  -34.6340 C   0  0  0  0  0  0  0  0  0  0  0  0
  -19.4551  -24.5875  -37.1641 C   0  0  0  0  0  0  0  0  0  0  0  0
  -18.6570  -24.1857  -38.2353 C   0  0  0  0  0  0  0  0  0  0  0  0
   -7.1870  -29.6644  -33.8814 C   0  0  0  0  0  0  0  0  0  0  0  0
   -8.6944  -30.2737  -32.0000 C   0  0  0  0  0  0  0  0  0  0  0  0
  -14.4212  -25.5088  -36.1308 C   0  0  0  0  0  0  0  0  0  0  0  0
  -11.2535  -31.3936  -32.4025 C   0  0  0  0  0  0  0  0  0  0  0  0
  -11.1461  -29.3630  -30.9278 C   0  0  0  0  0  0  0  0  0  0  0  0
  -11.9180  -29.1410  -33.3075 C   0  0  0  0  0  0  0  0  0  0  0  0
   -8.1931  -28.9798  -34.7256 C   0  0  0  0  0  0  0  0  0  0  0  0
  -10.9890  -29.8895  -32.3528 C   0  0  0  0  0  0  0  0  0  0  0  0
   -5.9305  -29.7862  -34.2385 N   0  0  0  0  0  0  0  0  0  0  0  0
   -7.4580  -30.2359  -32.6543 N   0  0  0  0  0  0  0  0  0  0  0  0
  -13.0526  -25.2219  -36.2223 N   0  0  0  0  0  0  0  0  0  0  0  0
  -15.2640  -24.6400  -36.8000 N   0  0  0  0  0  0  0  0  0  0  0  0
   -8.8213  -30.8090  -30.9112 O   0  0  0  0  0  0  0  0  0  0  0  0
   -8.5804  -27.7512  -34.1145 O   0  0  0  0  0  0  0  0  0  0  0  0
   -9.6364  -29.6517  -32.7533 O   0  0  0  0  0  0  0  0  0  0  0  0
  -14.8802  -26.7734  -35.1157 S   0  0  0  0  0  0  0  0  0  0  0  0
  -21.1815  -24.5913  -37.2524 Cl  0  0  0  0  0  0  0  0  0  0  0  0
  -19.3307  -23.6581  -39.7376 Cl  0  0  0  0  0  0  0  0  0  0  0  0
   -2.5779  -31.8734  -31.8008 H   0  0  0  0  0  0  0  0  0  0  0  0
   -4.2229  -32.3898  -30.0362 H   0  0  0  0  0  0  0  0  0  0  0  0
   -3.2620  -30.6431  -33.8447 H   0  0  0  0  0  0  0  0  0  0  0  0
   -6.5831  -31.6971  -30.2573 H   0  0  0  0  0  0  0  0  0  0  0  0
  -11.7113  -27.2196  -37.3570 H   0  0  0  0  0  0  0  0  0  0  0  0
  -11.8824  -24.6449  -33.9038 H   0  0  0  0  0  0  0  0  0  0  0  0
  -17.0233  -25.3515  -34.9185 H   0  0  0  0  0  0  0  0  0  0  0  0
   -9.7256  -28.3407  -36.4188 H   0  0  0  0  0  0  0  0  0  0  0  0
   -9.8968  -25.7697  -32.9705 H   0  0  0  0  0  0  0  0  0  0  0  0
  -19.4700  -25.3220  -35.1270 H   0  0  0  0  0  0  0  0  0  0  0  0
  -16.6396  -23.8923  -38.9474 H   0  0  0  0  0  0  0  0  0  0  0  0
  -11.0151  -31.7986  -33.3924 H   0  0  0  0  0  0  0  0  0  0  0  0
  -10.6623  -31.9321  -31.6547 H   0  0  0  0  0  0  0  0  0  0  0  0
  -12.3136  -31.6102  -32.2271 H   0  0  0  0  0  0  0  0  0  0  0  0
  -12.1855  -29.0772  -30.7299 H   0  0  0  0  0  0  0  0  0  0  0  0
  -10.5435  -28.4601  -30.7767 H   0  0  0  0  0  0  0  0  0  0  0  0
  -10.8445  -30.1094  -30.1858 H   0  0  0  0  0  0  0  0  0  0  0  0
  -11.6792  -29.3771  -34.3509 H   0  0  0  0  0  0  0  0  0  0  0  0
  -12.9684  -29.3925  -33.1280 H   0  0  0  0  0  0  0  0  0  0  0  0
  -11.7962  -28.0571  -33.2001 H   0  0  0  0  0  0  0  0  0  0  0  0
   -7.8014  -28.7548  -35.7313 H   0  0  0  0  0  0  0  0  0  0  0  0
   -9.0960  -29.5968  -34.8642 H   0  0  0  0  0  0  0  0  0  0  0  0
  -12.8644  -24.3659  -36.7581 H   0  0  0  0  0  0  0  0  0  0  0  0
  -14.8067  -23.8211  -37.1931 H   0  0  0  0  0  0  0  0  0  0  0  0
  1  2  2  0  0  0  0
  1  3  1  0  0  0  0
  2  4  1  0  0  0  0
  3 12  2  0  0  0  0
  4 13  2  0  0  0  0
  5  8  1  0  0  0  0
  5 14  2  0  0  0  0
  6  9  2  0  0  0  0
  6 14  1  0  0  0  0
  7 10  1  0  0  0  0
  7 15  2  0  0  0  0
  8 16  2  0  0  0  0
  9 16  1  0  0  0  0
 10 17  2  0  0  0  0
 11 15  1  0  0  0  0
 11 18  2  0  0  0  0
 12 13  1  0  0  0  0
 12 27  1  0  0  0  0
 13 28  1  0  0  0  0
 14 29  1  0  0  0  0
 15 30  1  0  0  0  0
 16 32  1  0  0  0  0
 17 18  1  0  0  0  0
 17 35  1  0  0  0  0
 18 36  1  0  0  0  0
 19 25  1  0  0  0  0
 19 27  2  0  0  0  0
 19 28  1  0  0  0  0
 20 28  1  0  0  0  0
 20 31  2  0  0  0  0
 20 33  1  0  0  0  0
 21 29  1  0  0  0  0
 21 30  1  0  0  0  0
 21 34  2  0  0  0  0
 22 26  1  0  0  0  0
 23 26  1  0  0  0  0
 24 26  1  0  0  0  0
 25 32  1  0  0  0  0
 26 33  1  0  0  0  0
  1 37  1  0  0  0  0
  2 38  1  0  0  0  0
  3 39  1  0  0  0  0
  4 40  1  0  0  0  0
  5 41  1  0  0  0  0
  6 42  1  0  0  0  0
  7 43  1  0  0  0  0
  8 44  1  0  0  0  0
  9 45  1  0  0  0  0
 10 46  1  0  0  0  0
 11 47  1  0  0  0  0
 22 48  1  0  0  0  0
 22 49  1  0  0  0  0
 22 50  1  0  0  0  0
 23 51  1  0  0  0  0
 23 52  1  0  0  0  0
 23 53  1  0  0  0  0
 24 54  1  0  0  0  0
 24 55  1  0  0  0  0
 24 56  1  0  0  0  0
 25 57  1  0  0  0  0
 25 58  1  0  0  0  0
 29 59  1  0  0  0  0
 30 60  1  0  0  0  0
M  END
> <Name>
EZ_20

> <SourceTag>
EZ_20

> <Activity_FLAP>
100

> <Activity_sEH>
19.1

> <Gold.Version>
5.2

> <Gold.Id.Protein>
6HGV|6HGV_protein|mol2

> <Gold.Goldscore.Fitness>
84.0692

> <Gold.Goldscore.Internal.Vdw>
-11.5769

> <Gold.Goldscore.Internal.Torsion>
-12.0732

> <Gold.Goldscore.External.Vdw>
64.4693

> <Gold.Goldscore.Internal.HBond>
0.0000

> <Gold.Goldscore.External.HBond>
0.0850

> <Gold.Goldscore.Internal.Correction>
-18.9890

> <Gold.Goldscore.Hbonds>
donor molecule, donor type, donor heavy atom, donor atom, acceptor molecule, acceptor atom, score
      L1  H    29    59       P1   854  0.01

> <Gold.Goldscore.Internal.Vdw.Weighted>
-11.5769

> <Gold.Goldscore.Internal.Torsion.Weighted>
-12.0732

> <Gold.Goldscore.External.Vdw.Weighted>
88.6453

> <Gold.Goldscore.Internal.HBond.Weighted>
0.0000

> <Gold.Goldscore.External.HBond.Weighted>
0.0850

> <Gold.Goldscore.Internal.Correction.Weighted>
-18.9890

> <Gold.Protein.RotatedTorsions>
[ 3781 1176 1175 1172 ] final    3.80 input   60.00 | X-H torsion
[ 3847 1247 1246 1244 ] final  162.36 input   60.00 | X-H torsion
[ 4507 1931 1930 1928 ] final   -7.84 input   60.00 | X-H torsion
[ 3677 1070 1069 1066 ] final -124.56 input   60.00 | X-H torsion
[ 3525  925  924  922 ] final  -62.05 input   59.99 | X-H torsion
[ 4531 1957 1955 1953 ] final   -3.04 input   60.00 | X-H torsion

> <Gold.Protein.ActiveResidues>
 PHE267  PRO268  MET310  ASP335  TRP336  MET339  TYR343  THR360  PRO361  ILE363 
 PRO371  SER374  ILE375  ASN378  PHE381  TYR383  GLN384  PHE387  LEU408  LEU417 
 MET419  LEU428  TYR466  MET469  ASN472  ASP496  VAL498  LEU499  MET503  HIS524 
 TRP525 

> <Gold.Protein.RotatedAtoms>
   -3.6934  -29.5917  -29.5165 H   0  0  0  0  0  0  0  0  0  0  0  0  # atno 3525 bound_to 925 
  -11.4081  -23.5288  -31.4492 H   0  0  0  0  0  0  0  0  0  0  0  0  # atno 3677 bound_to 1070
  -10.8129  -37.2657  -33.6165 H   0  0  0  0  0  0  0  0  0  0  0  0  # atno 3781 bound_to 1176
  -14.4785  -27.6574  -37.9439 H   0  0  0  0  0  0  0  0  0  0  0  0  # atno 3847 bound_to 1247
  -13.3372  -25.3489  -39.1799 H   0  0  0  0  0  0  0  0  0  0  0  0  # atno 4507 bound_to 1931
   -2.8230  -32.4650  -36.6949 H   0  0  0  0  0  0  0  0  0  0  0  0  # atno 4531 bound_to 1957
   -9.5032  -36.3185  -33.8045 LP  0  0  0  0  0  0  0  0  0  0  0  0  # atno 5205 bound_to 1176
   -9.7891  -37.0462  -32.3709 LP  0  0  0  0  0  0  0  0  0  0  0  0  # atno 5206 bound_to 1176
  -15.0938  -28.9667  -37.1989 LP  0  0  0  0  0  0  0  0  0  0  0  0  # atno 5215 bound_to 1247
  -15.9972  -27.6161  -37.3609 LP  0  0  0  0  0  0  0  0  0  0  0  0  # atno 5216 bound_to 1247
  -13.4251  -24.3805  -40.4847 LP  0  0  0  0  0  0  0  0  0  0  0  0  # atno 5217 bound_to 1931
  -12.4306  -23.9993  -39.2469 LP  0  0  0  0  0  0  0  0  0  0  0  0  # atno 5218 bound_to 1931
  -11.6419  -22.1801  -30.5692 LP  0  0  0  0  0  0  0  0  0  0  0  0  # atno 5224 bound_to 1070
  -12.8078  -23.3209  -30.6457 LP  0  0  0  0  0  0  0  0  0  0  0  0  # atno 5225 bound_to 1070

$$$$
EZ_20|Lisa_paper2_min|sdf|8|dock2
  -GOLD-  10182017 33D 1   1.00000     0.00000

 60 63  0  0  0  0  0  0  0  0  1 V2000
   -3.5226  -32.0558  -32.4970 C   0  0  0  0  0  0  0  0  0  0  0  0
   -4.3610  -32.2260  -31.3972 C   0  0  0  0  0  0  0  0  0  0  0  0
   -3.9612  -31.3618  -33.6284 C   0  0  0  0  0  0  0  0  0  0  0  0
   -5.6616  -31.7099  -31.3906 C   0  0  0  0  0  0  0  0  0  0  0  0
  -10.6186  -25.0308  -34.8163 C   0  0  0  0  0  0  0  0  0  0  0  0
  -10.9572  -26.6695  -36.5590 C   0  0  0  0  0  0  0  0  0  0  0  0
  -16.6449  -24.1777  -37.2852 C   0  0  0  0  0  0  0  0  0  0  0  0
   -9.6434  -25.8448  -34.2403 C   0  0  0  0  0  0  0  0  0  0  0  0
   -9.9818  -27.4835  -35.9829 C   0  0  0  0  0  0  0  0  0  0  0  0
  -17.9383  -24.0811  -37.7984 C   0  0  0  0  0  0  0  0  0  0  0  0
  -15.7706  -23.1686  -39.2987 C   0  0  0  0  0  0  0  0  0  0  0  0
   -5.2657  -30.8367  -33.6387 C   0  0  0  0  0  0  0  0  0  0  0  0
   -6.0937  -31.0151  -32.5297 C   0  0  0  0  0  0  0  0  0  0  0  0
  -11.2756  -25.4431  -35.9757 C   0  0  0  0  0  0  0  0  0  0  0  0
  -15.5611  -23.7215  -38.0353 C   0  0  0  0  0  0  0  0  0  0  0  0
   -9.3249  -27.0711  -34.8237 C   0  0  0  0  0  0  0  0  0  0  0  0
  -18.1480  -23.5282  -39.0617 C   0  0  0  0  0  0  0  0  0  0  0  0
  -17.0640  -23.0720  -39.8119 C   0  0  0  0  0  0  0  0  0  0  0  0
   -7.0981  -29.8770  -34.1376 C   0  0  0  0  0  0  0  0  0  0  0  0
   -8.4404  -30.2827  -32.0841 C   0  0  0  0  0  0  0  0  0  0  0  0
  -13.5592  -24.8941  -36.9795 C   0  0  0  0  0  0  0  0  0  0  0  0
  -10.8488  -29.1289  -30.8991 C   0  0  0  0  0  0  0  0  0  0  0  0
  -11.6762  -29.1093  -33.2707 C   0  0  0  0  0  0  0  0  0  0  0  0
  -11.0132  -31.2800  -32.1953 C   0  0  0  0  0  0  0  0  0  0  0  0
   -8.1220  -29.1214  -34.8955 C   0  0  0  0  0  0  0  0  0  0  0  0
  -10.7312  -29.7805  -32.2762 C   0  0  0  0  0  0  0  0  0  0  0  0
   -5.9056  -30.1311  -34.6217 N   0  0  0  0  0  0  0  0  0  0  0  0
   -7.2853  -30.3845  -32.8674 N   0  0  0  0  0  0  0  0  0  0  0  0
  -12.2512  -24.6291  -36.5519 N   0  0  0  0  0  0  0  0  0  0  0  0
  -14.2469  -23.8193  -37.5131 N   0  0  0  0  0  0  0  0  0  0  0  0
   -8.4967  -30.7722  -30.9680 O   0  0  0  0  0  0  0  0  0  0  0  0
   -8.3680  -27.8698  -34.2585 O   0  0  0  0  0  0  0  0  0  0  0  0
   -9.3966  -29.5931  -32.7561 O   0  0  0  0  0  0  0  0  0  0  0  0
  -14.1789  -26.4299  -36.6672 S   0  0  0  0  0  0  0  0  0  0  0  0
  -19.7733  -23.4392  -39.6433 Cl  0  0  0  0  0  0  0  0  0  0  0  0
  -17.2593  -22.3795  -41.3840 Cl  0  0  0  0  0  0  0  0  0  0  0  0
   -2.5169  -32.4666  -32.4766 H   0  0  0  0  0  0  0  0  0  0  0  0
   -3.9994  -32.7697  -30.5279 H   0  0  0  0  0  0  0  0  0  0  0  0
   -3.3026  -31.2334  -34.4819 H   0  0  0  0  0  0  0  0  0  0  0  0
   -6.2938  -31.8561  -30.5227 H   0  0  0  0  0  0  0  0  0  0  0  0
  -10.8587  -24.0769  -34.3534 H   0  0  0  0  0  0  0  0  0  0  0  0
  -11.4626  -27.0012  -37.4625 H   0  0  0  0  0  0  0  0  0  0  0  0
  -16.4928  -24.6088  -36.2990 H   0  0  0  0  0  0  0  0  0  0  0  0
   -9.1351  -25.5179  -33.3372 H   0  0  0  0  0  0  0  0  0  0  0  0
   -9.7382  -28.4378  -36.4420 H   0  0  0  0  0  0  0  0  0  0  0  0
  -18.7713  -24.4404  -37.1992 H   0  0  0  0  0  0  0  0  0  0  0  0
  -14.9209  -22.8156  -39.8797 H   0  0  0  0  0  0  0  0  0  0  0  0
  -11.8934  -29.1008  -30.5692 H   0  0  0  0  0  0  0  0  0  0  0  0
  -10.2609  -29.6656  -30.1474 H   0  0  0  0  0  0  0  0  0  0  0  0
  -10.5059  -28.0882  -30.9284 H   0  0  0  0  0  0  0  0  0  0  0  0
  -11.5297  -29.5109  -34.2800 H   0  0  0  0  0  0  0  0  0  0  0  0
  -11.4759  -28.0337  -33.3344 H   0  0  0  0  0  0  0  0  0  0  0  0
  -12.7249  -29.2507  -32.9901 H   0  0  0  0  0  0  0  0  0  0  0  0
  -10.4828  -31.7327  -31.3496 H   0  0  0  0  0  0  0  0  0  0  0  0
  -12.0829  -31.4836  -32.0812 H   0  0  0  0  0  0  0  0  0  0  0  0
  -10.6552  -31.7930  -33.0952 H   0  0  0  0  0  0  0  0  0  0  0  0
   -7.8028  -28.9226  -35.9319 H   0  0  0  0  0  0  0  0  0  0  0  0
   -9.0747  -29.6728  -34.9539 H   0  0  0  0  0  0  0  0  0  0  0  0
  -11.9918  -23.6417  -36.6657 H   0  0  0  0  0  0  0  0  0  0  0  0
  -13.7682  -22.9255  -37.4336 H   0  0  0  0  0  0  0  0  0  0  0  0
  1  2  2  0  0  0  0
  1  3  1  0  0  0  0
  2  4  1  0  0  0  0
  3 12  2  0  0  0  0
  4 13  2  0  0  0  0
  5  8  1  0  0  0  0
  5 14  2  0  0  0  0
  6  9  2  0  0  0  0
  6 14  1  0  0  0  0
  7 10  1  0  0  0  0
  7 15  2  0  0  0  0
  8 16  2  0  0  0  0
  9 16  1  0  0  0  0
 10 17  2  0  0  0  0
 11 15  1  0  0  0  0
 11 18  2  0  0  0  0
 12 13  1  0  0  0  0
 12 27  1  0  0  0  0
 13 28  1  0  0  0  0
 14 29  1  0  0  0  0
 15 30  1  0  0  0  0
 16 32  1  0  0  0  0
 17 18  1  0  0  0  0
 17 35  1  0  0  0  0
 18 36  1  0  0  0  0
 19 25  1  0  0  0  0
 19 27  2  0  0  0  0
 19 28  1  0  0  0  0
 20 28  1  0  0  0  0
 20 31  2  0  0  0  0
 20 33  1  0  0  0  0
 21 29  1  0  0  0  0
 21 30  1  0  0  0  0
 21 34  2  0  0  0  0
 22 26  1  0  0  0  0
 23 26  1  0  0  0  0
 24 26  1  0  0  0  0
 25 32  1  0  0  0  0
 26 33  1  0  0  0  0
  1 37  1  0  0  0  0
  2 38  1  0  0  0  0
  3 39  1  0  0  0  0
  4 40  1  0  0  0  0
  5 41  1  0  0  0  0
  6 42  1  0  0  0  0
  7 43  1  0  0  0  0
  8 44  1  0  0  0  0
  9 45  1  0  0  0  0
 10 46  1  0  0  0  0
 11 47  1  0  0  0  0
 22 48  1  0  0  0  0
 22 49  1  0  0  0  0
 22 50  1  0  0  0  0
 23 51  1  0  0  0  0
 23 52  1  0  0  0  0
 23 53  1  0  0  0  0
 24 54  1  0  0  0  0
 24 55  1  0  0  0  0
 24 56  1  0  0  0  0
 25 57  1  0  0  0  0
 25 58  1  0  0  0  0
 29 59  1  0  0  0  0
 30 60  1  0  0  0  0
M  END
> <Name>
EZ_20

> <SourceTag>
EZ_20

> <Activity_FLAP>
100

> <Activity_sEH>
19.1

> <Gold.Version>
5.2

> <Gold.Id.Protein>
6HGV|6HGV_protein|mol2

> <Gold.Goldscore.Fitness>
82.5420

> <Gold.Goldscore.Internal.Vdw>
-11.9926

> <Gold.Goldscore.Internal.Torsion>
-10.5889

> <Gold.Goldscore.External.Vdw>
60.2777

> <Gold.Goldscore.Internal.HBond>
0.0000

> <Gold.Goldscore.External.HBond>
2.2680

> <Gold.Goldscore.Internal.Correction>
-19.9736

> <Gold.Goldscore.Hbonds>
donor molecule, donor type, donor heavy atom, donor atom, acceptor molecule, acceptor atom, score
      P1  H  1247  3847       L1    34  0.01
      L1  H    29    59       P1   854  0.14
      L1  H    30    60       P1   854  0.24

> <Gold.Goldscore.Internal.Vdw.Weighted>
-11.9926

> <Gold.Goldscore.Internal.Torsion.Weighted>
-10.5889

> <Gold.Goldscore.External.Vdw.Weighted>
82.8819

> <Gold.Goldscore.Internal.HBond.Weighted>
0.0000

> <Gold.Goldscore.External.HBond.Weighted>
2.2680

> <Gold.Goldscore.Internal.Correction.Weighted>
-19.9736

> <Gold.Protein.RotatedTorsions>
[ 3781 1176 1175 1172 ] final -165.84 input   60.00 | X-H torsion
[ 3847 1247 1246 1244 ] final -153.95 input   60.00 | X-H torsion
[ 4507 1931 1930 1928 ] final  141.65 input   60.00 | X-H torsion
[ 3677 1070 1069 1066 ] final -102.60 input   60.00 | X-H torsion
[ 3525  925  924  922 ] final   10.60 input   59.99 | X-H torsion
[ 4531 1957 1955 1953 ] final   33.99 input   60.00 | X-H torsion

> <Gold.Protein.ActiveResidues>
 PHE267  PRO268  MET310  ASP335  TRP336  MET339  TYR343  THR360  PRO361  ILE363 
 PRO371  SER374  ILE375  ASN378  PHE381  TYR383  GLN384  PHE387  LEU408  LEU417 
 MET419  LEU428  TYR466  MET469  ASN472  ASP496  VAL498  LEU499  MET503  HIS524 
 TRP525 

> <Gold.Protein.RotatedAtoms>
   -3.4898  -29.5807  -30.6068 H   0  0  0  0  0  0  0  0  0  0  0  0  # atno 3525 bound_to 925 
  -11.6974  -23.7359  -31.4249 H   0  0  0  0  0  0  0  0  0  0  0  0  # atno 3677 bound_to 1070
   -9.2424  -36.4234  -33.0677 H   0  0  0  0  0  0  0  0  0  0  0  0  # atno 3781 bound_to 1176
  -15.0330  -27.2394  -37.8862 H   0  0  0  0  0  0  0  0  0  0  0  0  # atno 3847 bound_to 1247
  -12.5387  -23.8045  -39.6701 H   0  0  0  0  0  0  0  0  0  0  0  0  # atno 4507 bound_to 1931
   -3.0887  -32.9952  -36.6535 H   0  0  0  0  0  0  0  0  0  0  0  0  # atno 4531 bound_to 1957
  -10.4556  -37.4036  -32.6038 LP  0  0  0  0  0  0  0  0  0  0  0  0  # atno 5205 bound_to 1176
  -10.4183  -36.8092  -34.1243 LP  0  0  0  0  0  0  0  0  0  0  0  0  # atno 5206 bound_to 1176
  -14.5118  -28.7357  -37.5157 LP  0  0  0  0  0  0  0  0  0  0  0  0  # atno 5215 bound_to 1247
  -16.0207  -28.2680  -37.1023 LP  0  0  0  0  0  0  0  0  0  0  0  0  # atno 5216 bound_to 1247
  -13.0225  -25.1443  -38.8835 LP  0  0  0  0  0  0  0  0  0  0  0  0  # atno 5217 bound_to 1931
  -13.6372  -24.7908  -40.3545 LP  0  0  0  0  0  0  0  0  0  0  0  0  # atno 5218 bound_to 1931
  -11.3616  -22.2858  -30.7672 LP  0  0  0  0  0  0  0  0  0  0  0  0  # atno 5224 bound_to 1070
  -12.7968  -23.0068  -30.4722 LP  0  0  0  0  0  0  0  0  0  0  0  0  # atno 5225 bound_to 1070

$$$$
EZ_21|Lisa_paper2_min|sdf|9|dock6
  -GOLD-  10182017 63D 1   1.00000     0.00000

 45 48  0  0  0  0  0  0  0  0  1 V2000
   -3.2360  -31.6948  -34.0603 C   0  0  0  0  0  0  0  0  0  0  0  0
   -3.0107  -30.5059  -33.3624 C   0  0  0  0  0  0  0  0  0  0  0  0
   -4.4063  -31.8827  -34.8063 C   0  0  0  0  0  0  0  0  0  0  0  0
   -3.9434  -29.4637  -33.3842 C   0  0  0  0  0  0  0  0  0  0  0  0
  -10.6675  -24.8707  -35.5083 C   0  0  0  0  0  0  0  0  0  0  0  0
  -11.6245  -26.7527  -36.6829 C   0  0  0  0  0  0  0  0  0  0  0  0
  -16.5198  -22.8293  -38.9490 C   0  0  0  0  0  0  0  0  0  0  0  0
   -9.6575  -25.6943  -35.0114 C   0  0  0  0  0  0  0  0  0  0  0  0
  -10.6144  -27.5763  -36.1861 C   0  0  0  0  0  0  0  0  0  0  0  0
  -17.8760  -22.6824  -39.2398 C   0  0  0  0  0  0  0  0  0  0  0  0
  -17.0797  -24.1508  -37.0055 C   0  0  0  0  0  0  0  0  0  0  0  0
   -5.3543  -30.8460  -34.8390 C   0  0  0  0  0  0  0  0  0  0  0  0
   -5.1014  -29.6729  -34.1335 C   0  0  0  0  0  0  0  0  0  0  0  0
  -11.6511  -25.3998  -36.3441 C   0  0  0  0  0  0  0  0  0  0  0  0
  -16.1217  -23.5635  -37.8317 C   0  0  0  0  0  0  0  0  0  0  0  0
   -9.6308  -27.0471  -35.3504 C   0  0  0  0  0  0  0  0  0  0  0  0
  -18.8343  -23.2697  -38.4136 C   0  0  0  0  0  0  0  0  0  0  0  0
  -18.4361  -24.0039  -37.2963 C   0  0  0  0  0  0  0  0  0  0  0  0
   -7.0468  -29.5907  -35.1840 C   0  0  0  0  0  0  0  0  0  0  0  0
  -14.0397  -24.7753  -36.9987 C   0  0  0  0  0  0  0  0  0  0  0  0
   -8.3311  -29.0189  -35.6300 C   0  0  0  0  0  0  0  0  0  0  0  0
   -6.5670  -30.7765  -35.4854 N   0  0  0  0  0  0  0  0  0  0  0  0
   -6.2004  -28.8881  -34.3722 N   0  0  0  0  0  0  0  0  0  0  0  0
  -12.6616  -24.5761  -36.8410 N   0  0  0  0  0  0  0  0  0  0  0  0
  -14.7434  -23.7132  -37.5368 N   0  0  0  0  0  0  0  0  0  0  0  0
   -8.6404  -27.8547  -34.8633 O   0  0  0  0  0  0  0  0  0  0  0  0
  -14.6885  -26.2077  -36.3922 S   0  0  0  0  0  0  0  0  0  0  0  0
  -20.4985  -23.0488  -38.8254 Cl  0  0  0  0  0  0  0  0  0  0  0  0
  -19.5757  -24.7531  -36.2337 Cl  0  0  0  0  0  0  0  0  0  0  0  0
   -2.4919  -32.4866  -34.0246 H   0  0  0  0  0  0  0  0  0  0  0  0
   -2.0936  -30.3882  -32.7902 H   0  0  0  0  0  0  0  0  0  0  0  0
   -4.5711  -32.8100  -35.3457 H   0  0  0  0  0  0  0  0  0  0  0  0
   -3.7696  -28.5400  -32.8440 H   0  0  0  0  0  0  0  0  0  0  0  0
  -10.6785  -23.8179  -35.2378 H   0  0  0  0  0  0  0  0  0  0  0  0
  -12.3857  -27.1759  -37.3333 H   0  0  0  0  0  0  0  0  0  0  0  0
  -15.7813  -22.3689  -39.6003 H   0  0  0  0  0  0  0  0  0  0  0  0
   -8.8941  -25.2762  -34.3610 H   0  0  0  0  0  0  0  0  0  0  0  0
  -10.5989  -28.6293  -36.4536 H   0  0  0  0  0  0  0  0  0  0  0  0
  -18.1681  -22.1080  -40.1155 H   0  0  0  0  0  0  0  0  0  0  0  0
  -16.7631  -24.7213  -36.1345 H   0  0  0  0  0  0  0  0  0  0  0  0
   -8.3108  -28.7279  -36.6955 H   0  0  0  0  0  0  0  0  0  0  0  0
   -9.1645  -29.7348  -35.5149 H   0  0  0  0  0  0  0  0  0  0  0  0
   -6.3540  -27.9558  -34.0112 H   0  0  0  0  0  0  0  0  0  0  0  0
  -12.3650  -23.6336  -37.1220 H   0  0  0  0  0  0  0  0  0  0  0  0
  -14.2023  -22.8601  -37.6551 H   0  0  0  0  0  0  0  0  0  0  0  0
  1  2  2  0  0  0  0
  1  3  1  0  0  0  0
  2  4  1  0  0  0  0
  3 12  2  0  0  0  0
  4 13  2  0  0  0  0
  5  8  1  0  0  0  0
  5 14  2  0  0  0  0
  6  9  2  0  0  0  0
  6 14  1  0  0  0  0
  7 10  1  0  0  0  0
  7 15  2  0  0  0  0
  8 16  2  0  0  0  0
  9 16  1  0  0  0  0
 10 17  2  0  0  0  0
 11 15  1  0  0  0  0
 11 18  2  0  0  0  0
 12 13  1  0  0  0  0
 12 22  1  0  0  0  0
 13 23  1  0  0  0  0
 14 24  1  0  0  0  0
 15 25  1  0  0  0  0
 16 26  1  0  0  0  0
 17 18  1  0  0  0  0
 17 28  1  0  0  0  0
 18 29  1  0  0  0  0
 19 21  1  0  0  0  0
 19 22  2  0  0  0  0
 19 23  1  0  0  0  0
 20 24  1  0  0  0  0
 20 25  1  0  0  0  0
 20 27  2  0  0  0  0
 21 26  1  0  0  0  0
  1 30  1  0  0  0  0
  2 31  1  0  0  0  0
  3 32  1  0  0  0  0
  4 33  1  0  0  0  0
  5 34  1  0  0  0  0
  6 35  1  0  0  0  0
  7 36  1  0  0  0  0
  8 37  1  0  0  0  0
  9 38  1  0  0  0  0
 10 39  1  0  0  0  0
 11 40  1  0  0  0  0
 21 41  1  0  0  0  0
 21 42  1  0  0  0  0
 23 43  1  0  0  0  0
 24 44  1  0  0  0  0
 25 45  1  0  0  0  0
M  END
> <Name>
EZ_21

> <SourceTag>
EZ_21

> <Activity_sEH>
270.9

> <Activity_FLAP>
0.5

> <Gold.Version>
5.2

> <Gold.Id.Protein>
6HGV|6HGV_protein|mol2

> <Gold.Goldscore.Fitness>
82.9939

> <Gold.Goldscore.Internal.Vdw>
-6.7733

> <Gold.Goldscore.Internal.Torsion>
-6.8363

> <Gold.Goldscore.External.Vdw>
62.6391

> <Gold.Goldscore.Internal.HBond>
0.0000

> <Gold.Goldscore.External.HBond>
0.5235

> <Gold.Goldscore.Internal.Correction>
-9.9513

> <Gold.Goldscore.Hbonds>
donor molecule, donor type, donor heavy atom, donor atom, acceptor molecule, acceptor atom, score
      P1  H  1247  3847       L1    27  0.01
      L1  H    24    44       P1   854  0.06
      L1  H    25    45       P1   854  0.03

> <Gold.Goldscore.Internal.Vdw.Weighted>
-6.7733

> <Gold.Goldscore.Internal.Torsion.Weighted>
-6.8363

> <Gold.Goldscore.External.Vdw.Weighted>
86.1288

> <Gold.Goldscore.Internal.HBond.Weighted>
0.0000

> <Gold.Goldscore.External.HBond.Weighted>
0.5235

> <Gold.Goldscore.Internal.Correction.Weighted>
-9.9513

> <Gold.Protein.RotatedTorsions>
[ 3781 1176 1175 1172 ] final  -77.38 input   60.00 | X-H torsion
[ 3847 1247 1246 1244 ] final -137.72 input   60.00 | X-H torsion
[ 4507 1931 1930 1928 ] final  -48.80 input   60.00 | X-H torsion
[ 3677 1070 1069 1066 ] final  -70.09 input   60.00 | X-H torsion
[ 3525  925  924  922 ] final -138.44 input   59.99 | X-H torsion
[ 4531 1957 1955 1953 ] final  -28.65 input   60.00 | X-H torsion

> <Gold.Protein.ActiveResidues>
 PHE267  PRO268  MET310  ASP335  TRP336  MET339  TYR343  THR360  PRO361  ILE363 
 PRO371  SER374  ILE375  ASN378  PHE381  TYR383  GLN384  PHE387  LEU408  LEU417 
 MET419  LEU428  TYR466  MET469  ASN472  ASP496  VAL498  LEU499  MET503  HIS524 
 TRP525 

> <Gold.Protein.RotatedAtoms>
   -2.7473  -30.0486  -29.0301 H   0  0  0  0  0  0  0  0  0  0  0  0  # atno 3525 bound_to 925 
  -12.1794  -23.8446  -31.2499 H   0  0  0  0  0  0  0  0  0  0  0  0  # atno 3677 bound_to 1070
   -9.9933  -36.5260  -34.1313 H   0  0  0  0  0  0  0  0  0  0  0  0  # atno 3781 bound_to 1176
  -15.2809  -27.1979  -37.8047 H   0  0  0  0  0  0  0  0  0  0  0  0  # atno 3847 bound_to 1247
  -13.6440  -25.3036  -39.7570 H   0  0  0  0  0  0  0  0  0  0  0  0  # atno 4507 bound_to 1931
   -2.4758  -32.2462  -36.7571 H   0  0  0  0  0  0  0  0  0  0  0  0  # atno 4531 bound_to 1957
   -9.3674  -36.6656  -32.6357 LP  0  0  0  0  0  0  0  0  0  0  0  0  # atno 5205 bound_to 1176
  -10.7503  -37.4439  -33.0211 LP  0  0  0  0  0  0  0  0  0  0  0  0  # atno 5206 bound_to 1176
  -14.3791  -28.5426  -37.6416 LP  0  0  0  0  0  0  0  0  0  0  0  0  # atno 5215 bound_to 1247
  -15.9038  -28.5029  -37.0583 LP  0  0  0  0  0  0  0  0  0  0  0  0  # atno 5216 bound_to 1247
  -12.9925  -23.9163  -40.3038 LP  0  0  0  0  0  0  0  0  0  0  0  0  # atno 5217 bound_to 1931
  -12.5541  -24.5090  -38.8466 LP  0  0  0  0  0  0  0  0  0  0  0  0  # atno 5218 bound_to 1931
  -11.1127  -22.6269  -31.0838 LP  0  0  0  0  0  0  0  0  0  0  0  0  # atno 5224 bound_to 1070
  -12.5604  -22.5562  -30.3318 LP  0  0  0  0  0  0  0  0  0  0  0  0  # atno 5225 bound_to 1070

$$$$
EZ_21|Lisa_paper2_min|sdf|9|dock9
  -GOLD-  10182017 73D 1   1.00000     0.00000

 45 48  0  0  0  0  0  0  0  0  1 V2000
   -2.9162  -30.1159  -33.1462 C   0  0  0  0  0  0  0  0  0  0  0  0
   -3.1555  -31.3538  -33.7474 C   0  0  0  0  0  0  0  0  0  0  0  0
   -3.8674  -29.0896  -33.2042 C   0  0  0  0  0  0  0  0  0  0  0  0
   -4.3508  -31.6115  -34.4269 C   0  0  0  0  0  0  0  0  0  0  0  0
  -11.7877  -26.9315  -36.4878 C   0  0  0  0  0  0  0  0  0  0  0  0
  -11.2684  -25.0239  -35.0990 C   0  0  0  0  0  0  0  0  0  0  0  0
  -17.3692  -23.8799  -38.4836 C   0  0  0  0  0  0  0  0  0  0  0  0
  -10.6759  -27.6037  -35.9803 C   0  0  0  0  0  0  0  0  0  0  0  0
  -10.1567  -25.6962  -34.5915 C   0  0  0  0  0  0  0  0  0  0  0  0
  -18.7559  -23.8515  -38.6310 C   0  0  0  0  0  0  0  0  0  0  0  0
  -17.6256  -24.7209  -36.2332 C   0  0  0  0  0  0  0  0  0  0  0  0
   -5.0738  -29.3312  -33.8830 C   0  0  0  0  0  0  0  0  0  0  0  0
   -5.2834  -30.5749  -34.4721 C   0  0  0  0  0  0  0  0  0  0  0  0
  -12.0840  -25.6416  -36.0472 C   0  0  0  0  0  0  0  0  0  0  0  0
  -16.8040  -24.3146  -37.2847 C   0  0  0  0  0  0  0  0  0  0  0  0
   -9.8604  -26.9861  -35.0321 C   0  0  0  0  0  0  0  0  0  0  0  0
  -19.5776  -24.2578  -37.5795 C   0  0  0  0  0  0  0  0  0  0  0  0
  -19.0124  -24.6925  -36.3806 C   0  0  0  0  0  0  0  0  0  0  0  0
   -7.0094  -29.2250  -34.7783 C   0  0  0  0  0  0  0  0  0  0  0  0
  -14.5665  -25.2577  -36.5094 C   0  0  0  0  0  0  0  0  0  0  0  0
   -8.3391  -28.8005  -35.2544 C   0  0  0  0  0  0  0  0  0  0  0  0
   -6.1565  -28.5060  -34.0834 N   0  0  0  0  0  0  0  0  0  0  0  0
   -6.5293  -30.4786  -35.0372 N   0  0  0  0  0  0  0  0  0  0  0  0
  -13.1960  -24.9690  -36.5548 N   0  0  0  0  0  0  0  0  0  0  0  0
  -15.3948  -24.3440  -37.1355 N   0  0  0  0  0  0  0  0  0  0  0  0
   -8.7703  -27.6452  -34.5344 O   0  0  0  0  0  0  0  0  0  0  0  0
  -15.0470  -26.5862  -35.5904 S   0  0  0  0  0  0  0  0  0  0  0  0
  -21.2879  -24.1965  -37.8227 Cl  0  0  0  0  0  0  0  0  0  0  0  0
  -19.9776  -25.2060  -35.0413 Cl  0  0  0  0  0  0  0  0  0  0  0  0
   -1.9775  -29.9459  -32.6246 H   0  0  0  0  0  0  0  0  0  0  0  0
   -2.3984  -32.1319  -33.6876 H   0  0  0  0  0  0  0  0  0  0  0  0
   -3.6717  -28.1318  -32.7328 H   0  0  0  0  0  0  0  0  0  0  0  0
   -4.5386  -32.5719  -34.8932 H   0  0  0  0  0  0  0  0  0  0  0  0
  -12.4165  -27.4224  -37.2263 H   0  0  0  0  0  0  0  0  0  0  0  0
  -11.4895  -24.0190  -34.7484 H   0  0  0  0  0  0  0  0  0  0  0  0
  -16.7380  -23.5626  -39.3097 H   0  0  0  0  0  0  0  0  0  0  0  0
  -10.4504  -28.6084  -36.3273 H   0  0  0  0  0  0  0  0  0  0  0  0
   -9.5250  -25.2098  -33.8531 H   0  0  0  0  0  0  0  0  0  0  0  0
  -19.1790  -23.5112  -39.5729 H   0  0  0  0  0  0  0  0  0  0  0  0
  -17.1789  -25.0577  -35.2998 H   0  0  0  0  0  0  0  0  0  0  0  0
   -8.3364  -28.5484  -36.3300 H   0  0  0  0  0  0  0  0  0  0  0  0
   -9.0988  -29.5908  -35.1180 H   0  0  0  0  0  0  0  0  0  0  0  0
   -7.0056  -31.2072  -35.5523 H   0  0  0  0  0  0  0  0  0  0  0  0
  -12.9961  -24.0797  -37.0285 H   0  0  0  0  0  0  0  0  0  0  0  0
  -14.9286  -23.5017  -37.4638 H   0  0  0  0  0  0  0  0  0  0  0  0
  1  2  2  0  0  0  0
  1  3  1  0  0  0  0
  2  4  1  0  0  0  0
  3 12  2  0  0  0  0
  4 13  2  0  0  0  0
  5  8  1  0  0  0  0
  5 14  2  0  0  0  0
  6  9  2  0  0  0  0
  6 14  1  0  0  0  0
  7 10  1  0  0  0  0
  7 15  2  0  0  0  0
  8 16  2  0  0  0  0
  9 16  1  0  0  0  0
 10 17  2  0  0  0  0
 11 15  1  0  0  0  0
 11 18  2  0  0  0  0
 12 13  1  0  0  0  0
 12 22  1  0  0  0  0
 13 23  1  0  0  0  0
 14 24  1  0  0  0  0
 15 25  1  0  0  0  0
 16 26  1  0  0  0  0
 17 18  1  0  0  0  0
 17 28  1  0  0  0  0
 18 29  1  0  0  0  0
 19 21  1  0  0  0  0
 19 22  2  0  0  0  0
 19 23  1  0  0  0  0
 20 24  1  0  0  0  0
 20 25  1  0  0  0  0
 20 27  2  0  0  0  0
 21 26  1  0  0  0  0
  1 30  1  0  0  0  0
  2 31  1  0  0  0  0
  3 32  1  0  0  0  0
  4 33  1  0  0  0  0
  5 34  1  0  0  0  0
  6 35  1  0  0  0  0
  7 36  1  0  0  0  0
  8 37  1  0  0  0  0
  9 38  1  0  0  0  0
 10 39  1  0  0  0  0
 11 40  1  0  0  0  0
 21 41  1  0  0  0  0
 21 42  1  0  0  0  0
 23 43  1  0  0  0  0
 24 44  1  0  0  0  0
 25 45  1  0  0  0  0
M  END
> <Name>
EZ_21

> <SourceTag>
EZ_21

> <Activity_sEH>
270.9

> <Activity_FLAP>
0.5

> <Gold.Version>
5.2

> <Gold.Id.Protein>
6HGV|6HGV_protein|mol2

> <Gold.Goldscore.Fitness>
81.1835

> <Gold.Goldscore.Internal.Vdw>
-6.5257

> <Gold.Goldscore.Internal.Torsion>
-8.9321

> <Gold.Goldscore.External.Vdw>
63.1015

> <Gold.Goldscore.Internal.HBond>
0.0000

> <Gold.Goldscore.External.HBond>
0.1285

> <Gold.Goldscore.Internal.Correction>
-9.7483

> <Gold.Goldscore.Hbonds>
donor molecule, donor type, donor heavy atom, donor atom, acceptor molecule, acceptor atom, score
      L1  H    24    44       P1   854  0.02

> <Gold.Goldscore.Internal.Vdw.Weighted>
-6.5257

> <Gold.Goldscore.Internal.Torsion.Weighted>
-8.9321

> <Gold.Goldscore.External.Vdw.Weighted>
86.7645

> <Gold.Goldscore.Internal.HBond.Weighted>
0.0000

> <Gold.Goldscore.External.HBond.Weighted>
0.1285

> <Gold.Goldscore.Internal.Correction.Weighted>
-9.7483

> <Gold.Protein.RotatedTorsions>
[ 3781 1176 1175 1172 ] final  -73.81 input   60.00 | X-H torsion
[ 3847 1247 1246 1244 ] final   85.67 input   60.00 | X-H torsion
[ 4507 1931 1930 1928 ] final  -11.15 input   60.00 | X-H torsion
[ 3677 1070 1069 1066 ] final  -94.83 input   60.00 | X-H torsion
[ 3525  925  924  922 ] final   -3.77 input   59.99 | X-H torsion
[ 4531 1957 1955 1953 ] final  -14.66 input   60.00 | X-H torsion

> <Gold.Protein.ActiveResidues>
 PHE267  PRO268  MET310  ASP335  TRP336  MET339  TYR343  THR360  PRO361  ILE363 
 PRO371  SER374  ILE375  ASN378  PHE381  TYR383  GLN384  PHE387  LEU408  LEU417 
 MET419  LEU428  TYR466  MET469  ASN472  ASP496  VAL498  LEU499  MET503  HIS524 
 TRP525 

> <Gold.Protein.RotatedAtoms>
   -3.6299  -29.5363  -30.4244 H   0  0  0  0  0  0  0  0  0  0  0  0  # atno 3525 bound_to 925 
  -11.8110  -23.7851  -31.3971 H   0  0  0  0  0  0  0  0  0  0  0  0  # atno 3677 bound_to 1070
  -10.0427  -36.5545  -34.1434 H   0  0  0  0  0  0  0  0  0  0  0  0  # atno 3781 bound_to 1176
  -14.5211  -28.7358  -37.5147 H   0  0  0  0  0  0  0  0  0  0  0  0  # atno 3847 bound_to 1247
  -13.3697  -25.3603  -39.2217 H   0  0  0  0  0  0  0  0  0  0  0  0  # atno 4507 bound_to 1931
   -2.6775  -32.3462  -36.7205 H   0  0  0  0  0  0  0  0  0  0  0  0  # atno 4531 bound_to 1957
   -9.3416  -36.6329  -32.6770 LP  0  0  0  0  0  0  0  0  0  0  0  0  # atno 5205 bound_to 1176
  -10.7264  -37.4480  -32.9677 LP  0  0  0  0  0  0  0  0  0  0  0  0  # atno 5206 bound_to 1176
  -16.0227  -28.2622  -37.1037 LP  0  0  0  0  0  0  0  0  0  0  0  0  # atno 5215 bound_to 1247
  -15.0253  -27.2345  -37.8884 LP  0  0  0  0  0  0  0  0  0  0  0  0  # atno 5216 bound_to 1247
  -13.3941  -24.3356  -40.4856 LP  0  0  0  0  0  0  0  0  0  0  0  0  # atno 5217 bound_to 1931
  -12.4288  -24.0327  -39.2038 LP  0  0  0  0  0  0  0  0  0  0  0  0  # atno 5218 bound_to 1931
  -11.2811  -22.3497  -30.8432 LP  0  0  0  0  0  0  0  0  0  0  0  0  # atno 5224 bound_to 1070
  -12.7629  -22.8932  -30.4242 LP  0  0  0  0  0  0  0  0  0  0  0  0  # atno 5225 bound_to 1070

$$$$
EZ_21|Lisa_paper2_min|sdf|9|dock5
  -GOLD-  10182017 63D 1   1.00000     0.00000

 45 48  0  0  0  0  0  0  0  0  1 V2000
   -3.1355  -30.6820  -33.4107 C   0  0  0  0  0  0  0  0  0  0  0  0
   -3.4474  -31.8639  -34.0867 C   0  0  0  0  0  0  0  0  0  0  0  0
   -4.0273  -29.6022  -33.3962 C   0  0  0  0  0  0  0  0  0  0  0  0
   -4.6585  -32.0105  -34.7711 C   0  0  0  0  0  0  0  0  0  0  0  0
  -11.8712  -26.9016  -36.5063 C   0  0  0  0  0  0  0  0  0  0  0  0
  -11.1209  -24.9358  -35.3189 C   0  0  0  0  0  0  0  0  0  0  0  0
  -17.3776  -23.6839  -38.3929 C   0  0  0  0  0  0  0  0  0  0  0  0
  -10.7504  -27.6003  -36.0578 C   0  0  0  0  0  0  0  0  0  0  0  0
  -10.0002  -25.6346  -34.8703 C   0  0  0  0  0  0  0  0  0  0  0  0
  -18.7661  -23.6533  -38.5225 C   0  0  0  0  0  0  0  0  0  0  0  0
  -17.6043  -24.6616  -36.1952 C   0  0  0  0  0  0  0  0  0  0  0  0
   -5.2486  -29.7321  -34.0789 C   0  0  0  0  0  0  0  0  0  0  0  0
   -5.5311  -30.9223  -34.7433 C   0  0  0  0  0  0  0  0  0  0  0  0
  -12.0565  -25.5693  -36.1369 C   0  0  0  0  0  0  0  0  0  0  0  0
  -16.7967  -24.1881  -37.2292 C   0  0  0  0  0  0  0  0  0  0  0  0
   -9.8149  -26.9669  -35.2397 C   0  0  0  0  0  0  0  0  0  0  0  0
  -19.5738  -24.1269  -37.4885 C   0  0  0  0  0  0  0  0  0  0  0  0
  -18.9929  -24.6310  -36.3248 C   0  0  0  0  0  0  0  0  0  0  0  0
   -7.1793  -29.4608  -34.9497 C   0  0  0  0  0  0  0  0  0  0  0  0
  -14.5460  -25.1689  -36.5444 C   0  0  0  0  0  0  0  0  0  0  0  0
   -8.4850  -28.9329  -35.3871 C   0  0  0  0  0  0  0  0  0  0  0  0
   -6.2837  -28.8364  -34.2180 N   0  0  0  0  0  0  0  0  0  0  0  0
   -6.7721  -30.7205  -35.2909 N   0  0  0  0  0  0  0  0  0  0  0  0
  -13.1775  -24.8702  -36.5856 N   0  0  0  0  0  0  0  0  0  0  0  0
  -15.3858  -24.2196  -37.0981 N   0  0  0  0  0  0  0  0  0  0  0  0
   -8.7160  -27.6519  -34.8000 O   0  0  0  0  0  0  0  0  0  0  0  0
  -15.0095  -26.5590  -35.7118 S   0  0  0  0  0  0  0  0  0  0  0  0
  -21.2871  -24.0592  -37.7081 Cl  0  0  0  0  0  0  0  0  0  0  0  0
  -19.9403  -25.2299  -35.0084 Cl  0  0  0  0  0  0  0  0  0  0  0  0
   -2.1863  -30.5984  -32.8872 H   0  0  0  0  0  0  0  0  0  0  0  0
   -2.7352  -32.6855  -34.0822 H   0  0  0  0  0  0  0  0  0  0  0  0
   -3.7755  -28.6887  -32.8671 H   0  0  0  0  0  0  0  0  0  0  0  0
   -4.9026  -32.9274  -35.2954 H   0  0  0  0  0  0  0  0  0  0  0  0
  -12.5939  -27.4052  -37.1433 H   0  0  0  0  0  0  0  0  0  0  0  0
  -11.2549  -23.8980  -35.0247 H   0  0  0  0  0  0  0  0  0  0  0  0
  -16.7574  -23.3138  -39.2052 H   0  0  0  0  0  0  0  0  0  0  0  0
  -10.6117  -28.6380  -36.3489 H   0  0  0  0  0  0  0  0  0  0  0  0
   -9.2749  -25.1357  -34.2334 H   0  0  0  0  0  0  0  0  0  0  0  0
  -19.2015  -23.2583  -39.4370 H   0  0  0  0  0  0  0  0  0  0  0  0
  -17.1455  -25.0526  -35.2892 H   0  0  0  0  0  0  0  0  0  0  0  0
   -8.5425  -28.8184  -36.4844 H   0  0  0  0  0  0  0  0  0  0  0  0
   -9.3182  -29.5972  -35.0957 H   0  0  0  0  0  0  0  0  0  0  0  0
   -7.2913  -31.3871  -35.8470 H   0  0  0  0  0  0  0  0  0  0  0  0
  -12.9873  -23.9499  -37.0004 H   0  0  0  0  0  0  0  0  0  0  0  0
  -14.9274  -23.3546  -37.3741 H   0  0  0  0  0  0  0  0  0  0  0  0
  1  2  2  0  0  0  0
  1  3  1  0  0  0  0
  2  4  1  0  0  0  0
  3 12  2  0  0  0  0
  4 13  2  0  0  0  0
  5  8  1  0  0  0  0
  5 14  2  0  0  0  0
  6  9  2  0  0  0  0
  6 14  1  0  0  0  0
  7 10  1  0  0  0  0
  7 15  2  0  0  0  0
  8 16  2  0  0  0  0
  9 16  1  0  0  0  0
 10 17  2  0  0  0  0
 11 15  1  0  0  0  0
 11 18  2  0  0  0  0
 12 13  1  0  0  0  0
 12 22  1  0  0  0  0
 13 23  1  0  0  0  0
 14 24  1  0  0  0  0
 15 25  1  0  0  0  0
 16 26  1  0  0  0  0
 17 18  1  0  0  0  0
 17 28  1  0  0  0  0
 18 29  1  0  0  0  0
 19 21  1  0  0  0  0
 19 22  2  0  0  0  0
 19 23  1  0  0  0  0
 20 24  1  0  0  0  0
 20 25  1  0  0  0  0
 20 27  2  0  0  0  0
 21 26  1  0  0  0  0
  1 30  1  0  0  0  0
  2 31  1  0  0  0  0
  3 32  1  0  0  0  0
  4 33  1  0  0  0  0
  5 34  1  0  0  0  0
  6 35  1  0  0  0  0
  7 36  1  0  0  0  0
  8 37  1  0  0  0  0
  9 38  1  0  0  0  0
 10 39  1  0  0  0  0
 11 40  1  0  0  0  0
 21 41  1  0  0  0  0
 21 42  1  0  0  0  0
 23 43  1  0  0  0  0
 24 44  1  0  0  0  0
 25 45  1  0  0  0  0
M  END
> <Name>
EZ_21

> <SourceTag>
EZ_21

> <Activity_sEH>
270.9

> <Activity_FLAP>
0.5

> <Gold.Version>
5.2

> <Gold.Id.Protein>
6HGV|6HGV_protein|mol2

> <Gold.Goldscore.Fitness>
81.1673

> <Gold.Goldscore.Internal.Vdw>
-8.0334

> <Gold.Goldscore.Internal.Torsion>
-7.6352

> <Gold.Goldscore.External.Vdw>
62.9758

> <Gold.Goldscore.Internal.HBond>
0.0000

> <Gold.Goldscore.External.HBond>
0.2928

> <Gold.Goldscore.Internal.Correction>
-9.9513

> <Gold.Goldscore.Hbonds>
donor molecule, donor type, donor heavy atom, donor atom, acceptor molecule, acceptor atom, score
      L1  H    24    44       P1   854  0.05

> <Gold.Goldscore.Internal.Vdw.Weighted>
-8.0334

> <Gold.Goldscore.Internal.Torsion.Weighted>
-7.6352

> <Gold.Goldscore.External.Vdw.Weighted>
86.5917

> <Gold.Goldscore.Internal.HBond.Weighted>
0.0000

> <Gold.Goldscore.External.HBond.Weighted>
0.2928

> <Gold.Goldscore.Internal.Correction.Weighted>
-9.9513

> <Gold.Protein.RotatedTorsions>
[ 3781 1176 1175 1172 ] final  158.35 input   60.00 | X-H torsion
[ 3847 1247 1246 1244 ] final    6.19 input   60.00 | X-H torsion
[ 4507 1931 1930 1928 ] final  -41.38 input   60.00 | X-H torsion
[ 3677 1070 1069 1066 ] final  -92.30 input   60.00 | X-H torsion
[ 3525  925  924  922 ] final   -9.31 input   59.99 | X-H torsion
[ 4531 1957 1955 1953 ] final    4.71 input   60.00 | X-H torsion

> <Gold.Protein.ActiveResidues>
 PHE267  PRO268  MET310  ASP335  TRP336  MET339  TYR343  THR360  PRO361  ILE363 
 PRO371  SER374  ILE375  ASN378  PHE381  TYR383  GLN384  PHE387  LEU408  LEU417 
 MET419  LEU428  TYR466  MET469  ASN472  ASP496  VAL498  LEU499  MET503  HIS524 
 TRP525 

> <Gold.Protein.RotatedAtoms>
   -3.6723  -29.5250  -30.3452 H   0  0  0  0  0  0  0  0  0  0  0  0  # atno 3525 bound_to 925 
  -11.8486  -23.7981  -31.3860 H   0  0  0  0  0  0  0  0  0  0  0  0  # atno 3677 bound_to 1070
   -9.4050  -36.7090  -32.5949 H   0  0  0  0  0  0  0  0  0  0  0  0  # atno 3781 bound_to 1176
  -15.6291  -28.7786  -37.0634 H   0  0  0  0  0  0  0  0  0  0  0  0  # atno 3847 bound_to 1247
  -13.6067  -25.3414  -39.6481 H   0  0  0  0  0  0  0  0  0  0  0  0  # atno 4507 bound_to 1931
   -2.9057  -32.5596  -36.6808 H   0  0  0  0  0  0  0  0  0  0  0  0  # atno 4531 bound_to 1957
  -10.7753  -37.4361  -33.0864 LP  0  0  0  0  0  0  0  0  0  0  0  0  # atno 5205 bound_to 1176
   -9.9349  -36.4892  -34.1177 LP  0  0  0  0  0  0  0  0  0  0  0  0  # atno 5206 bound_to 1176
  -15.6296  -27.2578  -37.6423 LP  0  0  0  0  0  0  0  0  0  0  0  0  # atno 5215 bound_to 1247
  -14.3027  -28.1958  -37.8043 LP  0  0  0  0  0  0  0  0  0  0  0  0  # atno 5216 bound_to 1247
  -13.0748  -23.9814  -40.3660 LP  0  0  0  0  0  0  0  0  0  0  0  0  # atno 5217 bound_to 1931
  -12.5094  -24.4058  -38.8940 LP  0  0  0  0  0  0  0  0  0  0  0  0  # atno 5218 bound_to 1931
  -11.2575  -22.3731  -30.8681 LP  0  0  0  0  0  0  0  0  0  0  0  0  # atno 5224 bound_to 1070
  -12.7486  -22.8567  -30.4104 LP  0  0  0  0  0  0  0  0  0  0  0  0  # atno 5225 bound_to 1070

$$$$
EZ_21|Lisa_paper2_min|sdf|9|dock10
  -GOLD-  10182017 73D 1   1.00000     0.00000

 45 48  0  0  0  0  0  0  0  0  1 V2000
   -3.1128  -30.4507  -33.2718 C   0  0  0  0  0  0  0  0  0  0  0  0
   -3.2477  -31.4877  -34.1977 C   0  0  0  0  0  0  0  0  0  0  0  0
   -4.1533  -29.5392  -33.0526 C   0  0  0  0  0  0  0  0  0  0  0  0
   -4.4240  -31.6523  -34.9368 C   0  0  0  0  0  0  0  0  0  0  0  0
  -12.0947  -27.0491  -36.1030 C   0  0  0  0  0  0  0  0  0  0  0  0
  -11.0433  -25.0014  -35.3689 C   0  0  0  0  0  0  0  0  0  0  0  0
  -17.1742  -23.4350  -38.5590 C   0  0  0  0  0  0  0  0  0  0  0  0
  -11.0471  -27.7854  -35.5498 C   0  0  0  0  0  0  0  0  0  0  0  0
   -9.9958  -25.7377  -34.8157 C   0  0  0  0  0  0  0  0  0  0  0  0
  -18.5515  -23.3080  -38.7386 C   0  0  0  0  0  0  0  0  0  0  0  0
  -17.5504  -24.4845  -36.4156 C   0  0  0  0  0  0  0  0  0  0  0  0
   -5.3421  -29.6895  -33.7866 C   0  0  0  0  0  0  0  0  0  0  0  0
   -5.4468  -30.7330  -34.7021 C   0  0  0  0  0  0  0  0  0  0  0  0
  -12.0928  -25.6571  -36.0126 C   0  0  0  0  0  0  0  0  0  0  0  0
  -16.6736  -24.0232  -37.3974 C   0  0  0  0  0  0  0  0  0  0  0  0
   -9.9977  -27.1297  -34.9060 C   0  0  0  0  0  0  0  0  0  0  0  0
  -19.4285  -23.7693  -37.7567 C   0  0  0  0  0  0  0  0  0  0  0  0
  -18.9279  -24.3575  -36.5952 C   0  0  0  0  0  0  0  0  0  0  0  0
   -7.2913  -29.5128  -34.6402 C   0  0  0  0  0  0  0  0  0  0  0  0
  -14.5295  -25.1046  -36.5427 C   0  0  0  0  0  0  0  0  0  0  0  0
   -8.6602  -29.0941  -34.9951 C   0  0  0  0  0  0  0  0  0  0  0  0
   -6.4973  -28.9425  -33.7618 N   0  0  0  0  0  0  0  0  0  0  0  0
   -6.7037  -30.5956  -35.2330 N   0  0  0  0  0  0  0  0  0  0  0  0
  -13.1405  -24.9205  -36.5660 N   0  0  0  0  0  0  0  0  0  0  0  0
  -15.2739  -24.1526  -37.2155 N   0  0  0  0  0  0  0  0  0  0  0  0
   -8.9705  -27.8516  -34.3636 O   0  0  0  0  0  0  0  0  0  0  0  0
  -15.1272  -26.3627  -35.5938 S   0  0  0  0  0  0  0  0  0  0  0  0
  -21.1238  -23.5804  -38.0366 Cl  0  0  0  0  0  0  0  0  0  0  0  0
  -19.9633  -24.9460  -35.3419 Cl  0  0  0  0  0  0  0  0  0  0  0  0
   -2.1863  -30.3490  -32.7121 H   0  0  0  0  0  0  0  0  0  0  0  0
   -2.4228  -32.1799  -34.3483 H   0  0  0  0  0  0  0  0  0  0  0  0
   -4.0384  -28.7375  -32.3302 H   0  0  0  0  0  0  0  0  0  0  0  0
   -4.5308  -32.4572  -35.6550 H   0  0  0  0  0  0  0  0  0  0  0  0
  -12.9075  -27.5705  -36.6022 H   0  0  0  0  0  0  0  0  0  0  0  0
  -11.0312  -23.9172  -35.2926 H   0  0  0  0  0  0  0  0  0  0  0  0
  -16.4997  -23.0736  -39.3310 H   0  0  0  0  0  0  0  0  0  0  0  0
  -11.0543  -28.8694  -35.6233 H   0  0  0  0  0  0  0  0  0  0  0  0
   -9.1810  -25.2213  -34.3156 H   0  0  0  0  0  0  0  0  0  0  0  0
  -18.9240  -22.8483  -39.6507 H   0  0  0  0  0  0  0  0  0  0  0  0
  -17.1540  -24.9413  -35.5109 H   0  0  0  0  0  0  0  0  0  0  0  0
   -8.7870  -28.9619  -36.0845 H   0  0  0  0  0  0  0  0  0  0  0  0
   -9.4147  -29.8360  -34.6779 H   0  0  0  0  0  0  0  0  0  0  0  0
   -7.1193  -31.1913  -35.9370 H   0  0  0  0  0  0  0  0  0  0  0  0
  -12.8648  -24.0646  -37.0626 H   0  0  0  0  0  0  0  0  0  0  0  0
  -14.7391  -23.3588  -37.5593 H   0  0  0  0  0  0  0  0  0  0  0  0
  1  2  2  0  0  0  0
  1  3  1  0  0  0  0
  2  4  1  0  0  0  0
  3 12  2  0  0  0  0
  4 13  2  0  0  0  0
  5  8  1  0  0  0  0
  5 14  2  0  0  0  0
  6  9  2  0  0  0  0
  6 14  1  0  0  0  0
  7 10  1  0  0  0  0
  7 15  2  0  0  0  0
  8 16  2  0  0  0  0
  9 16  1  0  0  0  0
 10 17  2  0  0  0  0
 11 15  1  0  0  0  0
 11 18  2  0  0  0  0
 12 13  1  0  0  0  0
 12 22  1  0  0  0  0
 13 23  1  0  0  0  0
 14 24  1  0  0  0  0
 15 25  1  0  0  0  0
 16 26  1  0  0  0  0
 17 18  1  0  0  0  0
 17 28  1  0  0  0  0
 18 29  1  0  0  0  0
 19 21  1  0  0  0  0
 19 22  2  0  0  0  0
 19 23  1  0  0  0  0
 20 24  1  0  0  0  0
 20 25  1  0  0  0  0
 20 27  2  0  0  0  0
 21 26  1  0  0  0  0
  1 30  1  0  0  0  0
  2 31  1  0  0  0  0
  3 32  1  0  0  0  0
  4 33  1  0  0  0  0
  5 34  1  0  0  0  0
  6 35  1  0  0  0  0
  7 36  1  0  0  0  0
  8 37  1  0  0  0  0
  9 38  1  0  0  0  0
 10 39  1  0  0  0  0
 11 40  1  0  0  0  0
 21 41  1  0  0  0  0
 21 42  1  0  0  0  0
 23 43  1  0  0  0  0
 24 44  1  0  0  0  0
 25 45  1  0  0  0  0
M  END
> <Name>
EZ_21

> <SourceTag>
EZ_21

> <Activity_sEH>
270.9

> <Activity_FLAP>
0.5

> <Gold.Version>
5.2

> <Gold.Id.Protein>
6HGV|6HGV_protein|mol2

> <Gold.Goldscore.Fitness>
80.7259

> <Gold.Goldscore.Internal.Vdw>
-5.4629

> <Gold.Goldscore.Internal.Torsion>
-7.1633

> <Gold.Goldscore.External.Vdw>
60.7501

> <Gold.Goldscore.Internal.HBond>
0.0000

> <Gold.Goldscore.External.HBond>
0.0726

> <Gold.Goldscore.Internal.Correction>
-9.7483

> <Gold.Goldscore.Hbonds>
donor molecule, donor type, donor heavy atom, donor atom, acceptor molecule, acceptor atom, score
      L1  H    24    44       P1   854  0.01

> <Gold.Goldscore.Internal.Vdw.Weighted>
-5.4629

> <Gold.Goldscore.Internal.Torsion.Weighted>
-7.1633

> <Gold.Goldscore.External.Vdw.Weighted>
83.5313

> <Gold.Goldscore.Internal.HBond.Weighted>
0.0000

> <Gold.Goldscore.External.HBond.Weighted>
0.0726

> <Gold.Goldscore.Internal.Correction.Weighted>
-9.7483

> <Gold.Protein.RotatedTorsions>
[ 3781 1176 1175 1172 ] final   95.61 input   60.00 | X-H torsion
[ 3847 1247 1246 1244 ] final   61.01 input   60.00 | X-H torsion
[ 4507 1931 1930 1928 ] final  -37.14 input   60.00 | X-H torsion
[ 3677 1070 1069 1066 ] final  -99.40 input   60.00 | X-H torsion
[ 3525  925  924  922 ] final  145.15 input   59.99 | X-H torsion
[ 4531 1957 1955 1953 ] final  -65.14 input   60.00 | X-H torsion

> <Gold.Protein.ActiveResidues>
 PHE267  PRO268  MET310  ASP335  TRP336  MET339  TYR343  THR360  PRO361  ILE363 
 PRO371  SER374  ILE375  ASN378  PHE381  TYR383  GLN384  PHE387  LEU408  LEU417 
 MET419  LEU428  TYR466  MET469  ASN472  ASP496  VAL498  LEU499  MET503  HIS524 
 TRP525 

> <Gold.Protein.RotatedAtoms>
   -2.0557  -30.2675  -29.9329 H   0  0  0  0  0  0  0  0  0  0  0  0  # atno 3525 bound_to 925 
  -11.7437  -23.7578  -31.4147 H   0  0  0  0  0  0  0  0  0  0  0  0  # atno 3677 bound_to 1070
  -10.1753  -37.2837  -32.4326 H   0  0  0  0  0  0  0  0  0  0  0  0  # atno 3781 bound_to 1176
  -14.8206  -28.9218  -37.3259 H   0  0  0  0  0  0  0  0  0  0  0  0  # atno 3847 bound_to 1247
  -13.5813  -25.3573  -39.5857 H   0  0  0  0  0  0  0  0  0  0  0  0  # atno 4507 bound_to 1931
   -1.8999  -32.2384  -36.8664 H   0  0  0  0  0  0  0  0  0  0  0  0  # atno 4531 bound_to 1957
  -10.6489  -37.0219  -33.9673 LP  0  0  0  0  0  0  0  0  0  0  0  0  # atno 5205 bound_to 1176
   -9.2855  -36.3246  -33.4003 LP  0  0  0  0  0  0  0  0  0  0  0  0  # atno 5206 bound_to 1176
  -16.0694  -27.8828  -37.2306 LP  0  0  0  0  0  0  0  0  0  0  0  0  # atno 5215 bound_to 1247
  -14.6771  -27.4265  -37.9516 LP  0  0  0  0  0  0  0  0  0  0  0  0  # atno 5216 bound_to 1247
  -13.1218  -24.0231  -40.3962 LP  0  0  0  0  0  0  0  0  0  0  0  0  # atno 5217 bound_to 1931
  -12.4880  -24.3481  -38.9267 LP  0  0  0  0  0  0  0  0  0  0  0  0  # atno 5218 bound_to 1931
  -11.3271  -22.3105  -30.7982 LP  0  0  0  0  0  0  0  0  0  0  0  0  # atno 5224 bound_to 1070
  -12.7847  -22.9599  -30.4514 LP  0  0  0  0  0  0  0  0  0  0  0  0  # atno 5225 bound_to 1070

$$$$
EZ_21|Lisa_paper2_min|sdf|9|dock2
  -GOLD-  10182017 63D 1   1.00000     0.00000

 45 48  0  0  0  0  0  0  0  0  1 V2000
   -3.0508  -30.8742  -33.2113 C   0  0  0  0  0  0  0  0  0  0  0  0
   -3.3488  -32.0585  -33.8894 C   0  0  0  0  0  0  0  0  0  0  0  0
   -3.9099  -29.7700  -33.2760 C   0  0  0  0  0  0  0  0  0  0  0  0
   -4.5129  -32.1832  -34.6549 C   0  0  0  0  0  0  0  0  0  0  0  0
  -11.1705  -25.2886  -35.1043 C   0  0  0  0  0  0  0  0  0  0  0  0
  -11.6587  -27.0825  -36.6472 C   0  0  0  0  0  0  0  0  0  0  0  0
  -17.5948  -25.1020  -35.3783 C   0  0  0  0  0  0  0  0  0  0  0  0
   -9.9591  -25.8983  -34.7785 C   0  0  0  0  0  0  0  0  0  0  0  0
  -10.4472  -27.6922  -36.3216 C   0  0  0  0  0  0  0  0  0  0  0  0
  -18.9876  -25.1665  -35.3405 C   0  0  0  0  0  0  0  0  0  0  0  0
  -17.6797  -24.6623  -37.7525 C   0  0  0  0  0  0  0  0  0  0  0  0
   -5.0838  -29.8778  -34.0407 C   0  0  0  0  0  0  0  0  0  0  0  0
   -5.3536  -31.0710  -34.7050 C   0  0  0  0  0  0  0  0  0  0  0  0
  -12.0204  -25.8807  -36.0386 C   0  0  0  0  0  0  0  0  0  0  0  0
  -16.9409  -24.8499  -36.5844 C   0  0  0  0  0  0  0  0  0  0  0  0
   -9.5973  -27.1001  -35.3872 C   0  0  0  0  0  0  0  0  0  0  0  0
  -19.7266  -24.9789  -36.5086 C   0  0  0  0  0  0  0  0  0  0  0  0
  -19.0727  -24.7268  -37.7146 C   0  0  0  0  0  0  0  0  0  0  0  0
   -6.9404  -29.5681  -35.0489 C   0  0  0  0  0  0  0  0  0  0  0  0
  -14.5623  -25.6587  -36.1536 C   0  0  0  0  0  0  0  0  0  0  0  0
   -8.1967  -29.0118  -35.5850 C   0  0  0  0  0  0  0  0  0  0  0  0
   -6.0805  -28.9562  -34.2658 N   0  0  0  0  0  0  0  0  0  0  0  0
   -6.5470  -30.8443  -35.3414 N   0  0  0  0  0  0  0  0  0  0  0  0
  -13.2323  -25.2710  -36.3643 N   0  0  0  0  0  0  0  0  0  0  0  0
  -15.5255  -24.7838  -36.6224 N   0  0  0  0  0  0  0  0  0  0  0  0
   -8.4095  -27.6979  -35.0679 O   0  0  0  0  0  0  0  0  0  0  0  0
  -14.8268  -27.0519  -35.2428 S   0  0  0  0  0  0  0  0  0  0  0  0
  -21.4490  -25.0740  -36.3971 Cl  0  0  0  0  0  0  0  0  0  0  0  0
  -19.9327  -24.4882  -39.1954 Cl  0  0  0  0  0  0  0  0  0  0  0  0
   -2.1384  -30.8079  -32.6238 H   0  0  0  0  0  0  0  0  0  0  0  0
   -2.6627  -32.8994  -33.8223 H   0  0  0  0  0  0  0  0  0  0  0  0
   -3.6693  -28.8548  -32.7446 H   0  0  0  0  0  0  0  0  0  0  0  0
   -4.7463  -33.1019  -35.1809 H   0  0  0  0  0  0  0  0  0  0  0  0
  -11.4423  -24.3520  -34.6239 H   0  0  0  0  0  0  0  0  0  0  0  0
  -12.3130  -27.5531  -37.3766 H   0  0  0  0  0  0  0  0  0  0  0  0
  -17.0286  -25.2481  -34.4620 H   0  0  0  0  0  0  0  0  0  0  0  0
   -9.3013  -25.4321  -34.0501 H   0  0  0  0  0  0  0  0  0  0  0  0
  -10.1709  -28.6284  -36.7990 H   0  0  0  0  0  0  0  0  0  0  0  0
  -19.4806  -25.3625  -34.3915 H   0  0  0  0  0  0  0  0  0  0  0  0
  -17.1639  -24.4673  -38.6906 H   0  0  0  0  0  0  0  0  0  0  0  0
   -8.1865  -28.9448  -36.6877 H   0  0  0  0  0  0  0  0  0  0  0  0
   -9.0712  -29.6306  -35.3152 H   0  0  0  0  0  0  0  0  0  0  0  0
   -7.0452  -31.5057  -35.9223 H   0  0  0  0  0  0  0  0  0  0  0  0
  -13.1568  -24.3524  -36.8180 H   0  0  0  0  0  0  0  0  0  0  0  0
  -15.1641  -23.8985  -36.9691 H   0  0  0  0  0  0  0  0  0  0  0  0
  1  2  2  0  0  0  0
  1  3  1  0  0  0  0
  2  4  1  0  0  0  0
  3 12  2  0  0  0  0
  4 13  2  0  0  0  0
  5  8  1  0  0  0  0
  5 14  2  0  0  0  0
  6  9  2  0  0  0  0
  6 14  1  0  0  0  0
  7 10  1  0  0  0  0
  7 15  2  0  0  0  0
  8 16  2  0  0  0  0
  9 16  1  0  0  0  0
 10 17  2  0  0  0  0
 11 15  1  0  0  0  0
 11 18  2  0  0  0  0
 12 13  1  0  0  0  0
 12 22  1  0  0  0  0
 13 23  1  0  0  0  0
 14 24  1  0  0  0  0
 15 25  1  0  0  0  0
 16 26  1  0  0  0  0
 17 18  1  0  0  0  0
 17 28  1  0  0  0  0
 18 29  1  0  0  0  0
 19 21  1  0  0  0  0
 19 22  2  0  0  0  0
 19 23  1  0  0  0  0
 20 24  1  0  0  0  0
 20 25  1  0  0  0  0
 20 27  2  0  0  0  0
 21 26  1  0  0  0  0
  1 30  1  0  0  0  0
  2 31  1  0  0  0  0
  3 32  1  0  0  0  0
  4 33  1  0  0  0  0
  5 34  1  0  0  0  0
  6 35  1  0  0  0  0
  7 36  1  0  0  0  0
  8 37  1  0  0  0  0
  9 38  1  0  0  0  0
 10 39  1  0  0  0  0
 11 40  1  0  0  0  0
 21 41  1  0  0  0  0
 21 42  1  0  0  0  0
 23 43  1  0  0  0  0
 24 44  1  0  0  0  0
 25 45  1  0  0  0  0
M  END
> <Name>
EZ_21

> <SourceTag>
EZ_21

> <Activity_sEH>
270.9

> <Activity_FLAP>
0.5

> <Gold.Version>
5.2

> <Gold.Id.Protein>
6HGV|6HGV_protein|mol2

> <Gold.Goldscore.Fitness>
79.6833

> <Gold.Goldscore.Internal.Vdw>
-7.0763

> <Gold.Goldscore.Internal.Torsion>
-10.3210

> <Gold.Goldscore.External.Vdw>
63.0352

> <Gold.Goldscore.Internal.HBond>
0.0000

> <Gold.Goldscore.External.HBond>
0.1606

> <Gold.Goldscore.Internal.Correction>
-10.2466

> <Gold.Goldscore.Hbonds>
donor molecule, donor type, donor heavy atom, donor atom, acceptor molecule, acceptor atom, score
      L1  H    24    44       P1   854  0.03

> <Gold.Goldscore.Internal.Vdw.Weighted>
-7.0763

> <Gold.Goldscore.Internal.Torsion.Weighted>
-10.3210

> <Gold.Goldscore.External.Vdw.Weighted>
86.6734

> <Gold.Goldscore.Internal.HBond.Weighted>
0.0000

> <Gold.Goldscore.External.HBond.Weighted>
0.1606

> <Gold.Goldscore.Internal.Correction.Weighted>
-10.2466

> <Gold.Protein.RotatedTorsions>
[ 3781 1176 1175 1172 ] final  -90.70 input   60.00 | X-H torsion
[ 3847 1247 1246 1244 ] final  154.80 input   60.00 | X-H torsion
[ 4507 1931 1930 1928 ] final   -1.65 input   60.00 | X-H torsion
[ 3677 1070 1069 1066 ] final -117.66 input   60.00 | X-H torsion
[ 3525  925  924  922 ] final  -32.88 input   59.99 | X-H torsion
[ 4531 1957 1955 1953 ] final  -42.22 input   60.00 | X-H torsion

> <Gold.Protein.ActiveResidues>
 PHE267  PRO268  MET310  ASP335  TRP336  MET339  TYR343  THR360  PRO361  ILE363 
 PRO371  SER374  ILE375  ASN378  PHE381  TYR383  GLN384  PHE387  LEU408  LEU417 
 MET419  LEU428  TYR466  MET469  ASN472  ASP496  VAL498  LEU499  MET503  HIS524 
 TRP525 

> <Gold.Protein.RotatedAtoms>
   -3.7700  -29.5163  -29.9757 H   0  0  0  0  0  0  0  0  0  0  0  0  # atno 3525 bound_to 925 
  -11.4923  -23.6036  -31.4505 H   0  0  0  0  0  0  0  0  0  0  0  0  # atno 3677 bound_to 1070
   -9.8117  -36.4327  -34.0571 H   0  0  0  0  0  0  0  0  0  0  0  0  # atno 3781 bound_to 1176
  -14.4166  -27.7628  -37.9279 H   0  0  0  0  0  0  0  0  0  0  0  0  # atno 3847 bound_to 1247
  -13.2741  -25.3208  -39.1060 H   0  0  0  0  0  0  0  0  0  0  0  0  # atno 4507 bound_to 1931
   -2.2633  -32.1994  -36.7967 H   0  0  0  0  0  0  0  0  0  0  0  0  # atno 4531 bound_to 1957
   -9.4861  -36.7940  -32.5042 LP  0  0  0  0  0  0  0  0  0  0  0  0  # atno 5205 bound_to 1176
  -10.8145  -37.4095  -33.2274 LP  0  0  0  0  0  0  0  0  0  0  0  0  # atno 5206 bound_to 1176
  -15.2103  -28.9561  -37.1572 LP  0  0  0  0  0  0  0  0  0  0  0  0  # atno 5215 bound_to 1247
  -15.9430  -27.5204  -37.4188 LP  0  0  0  0  0  0  0  0  0  0  0  0  # atno 5216 bound_to 1247
  -13.4797  -24.4659  -40.4753 LP  0  0  0  0  0  0  0  0  0  0  0  0  # atno 5217 bound_to 1931
  -12.4395  -23.9421  -39.3307 LP  0  0  0  0  0  0  0  0  0  0  0  0  # atno 5218 bound_to 1931
  -11.5470  -22.2007  -30.6276 LP  0  0  0  0  0  0  0  0  0  0  0  0  # atno 5224 bound_to 1070
  -12.8180  -23.2251  -30.5860 LP  0  0  0  0  0  0  0  0  0  0  0  0  # atno 5225 bound_to 1070

$$$$
EZ_21|Lisa_paper2_min|sdf|9|dock8
  -GOLD-  10182017 73D 1   1.00000     0.00000

 45 48  0  0  0  0  0  0  0  0  1 V2000
   -3.3616  -29.5217  -33.4018 C   0  0  0  0  0  0  0  0  0  0  0  0
   -3.5592  -30.7750  -33.9859 C   0  0  0  0  0  0  0  0  0  0  0  0
   -4.3497  -28.5314  -33.4673 C   0  0  0  0  0  0  0  0  0  0  0  0
   -4.7479  -31.0846  -34.6551 C   0  0  0  0  0  0  0  0  0  0  0  0
  -12.2308  -25.2470  -34.4749 C   0  0  0  0  0  0  0  0  0  0  0  0
  -12.6601  -26.9723  -36.1110 C   0  0  0  0  0  0  0  0  0  0  0  0
  -17.4555  -23.6471  -38.0683 C   0  0  0  0  0  0  0  0  0  0  0  0
  -10.8930  -25.6369  -34.4148 C   0  0  0  0  0  0  0  0  0  0  0  0
  -11.3222  -27.3620  -36.0509 C   0  0  0  0  0  0  0  0  0  0  0  0
  -18.5296  -23.2627  -38.8708 C   0  0  0  0  0  0  0  0  0  0  0  0
  -18.9654  -24.8715  -36.6338 C   0  0  0  0  0  0  0  0  0  0  0  0
   -5.5502  -28.8251  -34.1359 C   0  0  0  0  0  0  0  0  0  0  0  0
   -5.7178  -30.0831  -34.7080 C   0  0  0  0  0  0  0  0  0  0  0  0
  -13.1145  -25.9147  -35.3230 C   0  0  0  0  0  0  0  0  0  0  0  0
  -17.6734  -24.4515  -36.9497 C   0  0  0  0  0  0  0  0  0  0  0  0
  -10.4385  -26.6943  -35.2028 C   0  0  0  0  0  0  0  0  0  0  0  0
  -19.8217  -23.6827  -38.5549 C   0  0  0  0  0  0  0  0  0  0  0  0
  -20.0396  -24.4871  -37.4364 C   0  0  0  0  0  0  0  0  0  0  0  0
   -7.4932  -28.8006  -35.0211 C   0  0  0  0  0  0  0  0  0  0  0  0
  -15.2816  -25.1844  -36.4605 C   0  0  0  0  0  0  0  0  0  0  0  0
   -8.8400  -28.4307  -35.4948 C   0  0  0  0  0  0  0  0  0  0  0  0
   -6.6632  -28.0424  -34.3404 N   0  0  0  0  0  0  0  0  0  0  0  0
   -6.9693  -30.0392  -35.2669 N   0  0  0  0  0  0  0  0  0  0  0  0
  -14.4528  -25.5250  -35.3832 N   0  0  0  0  0  0  0  0  0  0  0  0
  -16.5816  -24.8425  -36.1347 N   0  0  0  0  0  0  0  0  0  0  0  0
   -9.1268  -27.0766  -35.1439 O   0  0  0  0  0  0  0  0  0  0  0  0
  -14.6481  -25.3667  -38.0116 S   0  0  0  0  0  0  0  0  0  0  0  0
  -21.1108  -23.1704  -39.5864 Cl  0  0  0  0  0  0  0  0  0  0  0  0
  -21.6172  -25.0374  -36.9920 Cl  0  0  0  0  0  0  0  0  0  0  0  0
   -2.4270  -29.3112  -32.8879 H   0  0  0  0  0  0  0  0  0  0  0  0
   -2.7740  -31.5244  -33.9207 H   0  0  0  0  0  0  0  0  0  0  0  0
   -4.1864  -27.5611  -33.0092 H   0  0  0  0  0  0  0  0  0  0  0  0
   -4.9033  -32.0571  -35.1081 H   0  0  0  0  0  0  0  0  0  0  0  0
  -12.5741  -24.4215  -33.8565 H   0  0  0  0  0  0  0  0  0  0  0  0
  -13.3396  -27.4999  -36.7754 H   0  0  0  0  0  0  0  0  0  0  0  0
  -16.4524  -23.3156  -38.3243 H   0  0  0  0  0  0  0  0  0  0  0  0
  -10.2095  -25.1128  -33.7523 H   0  0  0  0  0  0  0  0  0  0  0  0
  -10.9741  -28.1866  -36.6670 H   0  0  0  0  0  0  0  0  0  0  0  0
  -18.3409  -22.6368  -39.7395 H   0  0  0  0  0  0  0  0  0  0  0  0
  -19.1295  -25.4979  -35.7591 H   0  0  0  0  0  0  0  0  0  0  0  0
   -8.9373  -28.5248  -36.5912 H   0  0  0  0  0  0  0  0  0  0  0  0
   -9.6241  -29.0712  -35.0529 H   0  0  0  0  0  0  0  0  0  0  0  0
   -7.4217  -30.7911  -35.7701 H   0  0  0  0  0  0  0  0  0  0  0  0
  -14.9481  -25.5058  -34.4834 H   0  0  0  0  0  0  0  0  0  0  0  0
  -16.8273  -24.9846  -35.1581 H   0  0  0  0  0  0  0  0  0  0  0  0
  1  2  2  0  0  0  0
  1  3  1  0  0  0  0
  2  4  1  0  0  0  0
  3 12  2  0  0  0  0
  4 13  2  0  0  0  0
  5  8  1  0  0  0  0
  5 14  2  0  0  0  0
  6  9  2  0  0  0  0
  6 14  1  0  0  0  0
  7 10  1  0  0  0  0
  7 15  2  0  0  0  0
  8 16  2  0  0  0  0
  9 16  1  0  0  0  0
 10 17  2  0  0  0  0
 11 15  1  0  0  0  0
 11 18  2  0  0  0  0
 12 13  1  0  0  0  0
 12 22  1  0  0  0  0
 13 23  1  0  0  0  0
 14 24  1  0  0  0  0
 15 25  1  0  0  0  0
 16 26  1  0  0  0  0
 17 18  1  0  0  0  0
 17 28  1  0  0  0  0
 18 29  1  0  0  0  0
 19 21  1  0  0  0  0
 19 22  2  0  0  0  0
 19 23  1  0  0  0  0
 20 24  1  0  0  0  0
 20 25  1  0  0  0  0
 20 27  2  0  0  0  0
 21 26  1  0  0  0  0
  1 30  1  0  0  0  0
  2 31  1  0  0  0  0
  3 32  1  0  0  0  0
  4 33  1  0  0  0  0
  5 34  1  0  0  0  0
  6 35  1  0  0  0  0
  7 36  1  0  0  0  0
  8 37  1  0  0  0  0
  9 38  1  0  0  0  0
 10 39  1  0  0  0  0
 11 40  1  0  0  0  0
 21 41  1  0  0  0  0
 21 42  1  0  0  0  0
 23 43  1  0  0  0  0
 24 44  1  0  0  0  0
 25 45  1  0  0  0  0
M  END
> <Name>
EZ_21

> <SourceTag>
EZ_21

> <Activity_sEH>
270.9

> <Activity_FLAP>
0.5

> <Gold.Version>
5.2

> <Gold.Id.Protein>
6HGV|6HGV_protein|mol2

> <Gold.Goldscore.Fitness>
78.9424

> <Gold.Goldscore.Internal.Vdw>
-4.4844

> <Gold.Goldscore.Internal.Torsion>
-7.8417

> <Gold.Goldscore.External.Vdw>
59.1398

> <Gold.Goldscore.Internal.HBond>
0.0000

> <Gold.Goldscore.External.HBond>
0.0000

> <Gold.Goldscore.Internal.Correction>
-9.9513

> <Gold.Goldscore.Internal.Vdw.Weighted>
-4.4844

> <Gold.Goldscore.Internal.Torsion.Weighted>
-7.8417

> <Gold.Goldscore.External.Vdw.Weighted>
81.3173

> <Gold.Goldscore.Internal.HBond.Weighted>
0.0000

> <Gold.Goldscore.External.HBond.Weighted>
0.0000

> <Gold.Goldscore.Internal.Correction.Weighted>
-9.9513

> <Gold.Protein.RotatedTorsions>
[ 3781 1176 1175 1172 ] final -153.81 input   60.00 | X-H torsion
[ 3847 1247 1246 1244 ] final   -8.62 input   60.00 | X-H torsion
[ 4507 1931 1930 1928 ] final  174.05 input   60.00 | X-H torsion
[ 3677 1070 1069 1066 ] final  141.27 input   60.00 | X-H torsion
[ 3525  925  924  922 ] final   -6.37 input   59.99 | X-H torsion
[ 4531 1957 1955 1953 ] final    3.04 input   60.00 | X-H torsion

> <Gold.Protein.ActiveResidues>
 PHE267  PRO268  MET310  ASP335  TRP336  MET339  TYR343  THR360  PRO361  ILE363 
 PRO371  SER374  ILE375  ASN378  PHE381  TYR383  GLN384  PHE387  LEU408  LEU417 
 MET419  LEU428  TYR466  MET469  ASN472  ASP496  VAL498  LEU499  MET503  HIS524 
 TRP525 

> <Gold.Protein.RotatedAtoms>
   -3.6506  -29.5306  -30.3878 H   0  0  0  0  0  0  0  0  0  0  0  0  # atno 3525 bound_to 925 
  -11.3236  -22.3219  -30.8035 H   0  0  0  0  0  0  0  0  0  0  0  0  # atno 3677 bound_to 1070
   -9.2553  -36.3624  -33.2536 H   0  0  0  0  0  0  0  0  0  0  0  0  # atno 3781 bound_to 1176
  -15.8088  -28.6181  -37.0543 H   0  0  0  0  0  0  0  0  0  0  0  0  # atno 3847 bound_to 1247
  -12.8092  -23.8164  -40.1167 H   0  0  0  0  0  0  0  0  0  0  0  0  # atno 4507 bound_to 1931
   -2.8890  -32.5383  -36.6836 H   0  0  0  0  0  0  0  0  0  0  0  0  # atno 4531 bound_to 1957
  -10.3045  -37.3451  -32.4909 LP  0  0  0  0  0  0  0  0  0  0  0  0  # atno 5205 bound_to 1176
  -10.5564  -36.9292  -34.0499 LP  0  0  0  0  0  0  0  0  0  0  0  0  # atno 5206 bound_to 1176
  -15.4189  -27.1985  -37.7476 LP  0  0  0  0  0  0  0  0  0  0  0  0  # atno 5215 bound_to 1247
  -14.3323  -28.4168  -37.7081 LP  0  0  0  0  0  0  0  0  0  0  0  0  # atno 5216 bound_to 1247
  -12.6888  -24.7490  -38.7886 LP  0  0  0  0  0  0  0  0  0  0  0  0  # atno 5217 bound_to 1931
  -13.6985  -25.1742  -39.9995 LP  0  0  0  0  0  0  0  0  0  0  0  0  # atno 5218 bound_to 1931
  -12.7818  -22.9501  -30.4473 LP  0  0  0  0  0  0  0  0  0  0  0  0  # atno 5224 bound_to 1070
  -11.7531  -23.7663  -31.4179 LP  0  0  0  0  0  0  0  0  0  0  0  0  # atno 5225 bound_to 1070

$$$$
EZ_21|Lisa_paper2_min|sdf|9|dock3
  -GOLD-  10182017 63D 1   1.00000     0.00000

 45 48  0  0  0  0  0  0  0  0  1 V2000
  -20.4692  -24.3248  -36.0068 C   0  0  0  0  0  0  0  0  0  0  0  0
  -20.1974  -23.6553  -37.2022 C   0  0  0  0  0  0  0  0  0  0  0  0
  -19.4857  -25.0916  -35.3696 C   0  0  0  0  0  0  0  0  0  0  0  0
  -18.9364  -23.7269  -37.8036 C   0  0  0  0  0  0  0  0  0  0  0  0
  -10.6609  -25.4814  -34.1970 C   0  0  0  0  0  0  0  0  0  0  0  0
  -10.7620  -26.9697  -36.0975 C   0  0  0  0  0  0  0  0  0  0  0  0
   -4.9244  -29.2635  -33.3466 C   0  0  0  0  0  0  0  0  0  0  0  0
  -11.9595  -25.0494  -34.4661 C   0  0  0  0  0  0  0  0  0  0  0  0
  -12.0606  -26.5378  -36.3666 C   0  0  0  0  0  0  0  0  0  0  0  0
   -4.0470  -30.3420  -33.2344 C   0  0  0  0  0  0  0  0  0  0  0  0
   -6.0954  -30.4017  -35.1272 C   0  0  0  0  0  0  0  0  0  0  0  0
  -18.2132  -25.1747  -35.9599 C   0  0  0  0  0  0  0  0  0  0  0  0
  -17.9725  -24.4963  -37.1514 C   0  0  0  0  0  0  0  0  0  0  0  0
  -10.0620  -26.4416  -35.0127 C   0  0  0  0  0  0  0  0  0  0  0  0
   -5.9486  -29.2934  -34.2931 C   0  0  0  0  0  0  0  0  0  0  0  0
  -12.6595  -25.5776  -35.5509 C   0  0  0  0  0  0  0  0  0  0  0  0
   -4.1937  -31.4504  -34.0684 C   0  0  0  0  0  0  0  0  0  0  0  0
   -5.2179  -31.4802  -35.0149 C   0  0  0  0  0  0  0  0  0  0  0  0
  -16.1796  -25.5925  -36.4594 C   0  0  0  0  0  0  0  0  0  0  0  0
   -8.1865  -28.1507  -34.7211 C   0  0  0  0  0  0  0  0  0  0  0  0
  -14.7885  -26.0815  -36.4831 C   0  0  0  0  0  0  0  0  0  0  0  0
  -17.0882  -25.8497  -35.5453 N   0  0  0  0  0  0  0  0  0  0  0  0
  -16.6642  -24.7812  -37.4474 N   0  0  0  0  0  0  0  0  0  0  0  0
   -8.7630  -26.8737  -34.7437 N   0  0  0  0  0  0  0  0  0  0  0  0
   -6.8405  -28.1976  -34.4065 N   0  0  0  0  0  0  0  0  0  0  0  0
  -13.9328  -25.1541  -35.8149 O   0  0  0  0  0  0  0  0  0  0  0  0
   -9.1506  -29.4433  -35.2111 S   0  0  0  0  0  0  0  0  0  0  0  0
   -3.0730  -32.7533  -33.8826 Cl  0  0  0  0  0  0  0  0  0  0  0  0
   -5.4495  -32.8238  -36.0780 Cl  0  0  0  0  0  0  0  0  0  0  0  0
  -21.4590  -24.2495  -35.5634 H   0  0  0  0  0  0  0  0  0  0  0  0
  -20.9807  -23.0683  -37.6756 H   0  0  0  0  0  0  0  0  0  0  0  0
  -19.7071  -25.6070  -34.4405 H   0  0  0  0  0  0  0  0  0  0  0  0
  -18.7234  -23.2072  -38.7308 H   0  0  0  0  0  0  0  0  0  0  0  0
  -10.1247  -25.0631  -33.3489 H   0  0  0  0  0  0  0  0  0  0  0  0
  -10.3054  -27.7183  -36.7400 H   0  0  0  0  0  0  0  0  0  0  0  0
   -4.8021  -28.4054  -32.6907 H   0  0  0  0  0  0  0  0  0  0  0  0
  -12.4206  -24.3014  -33.8270 H   0  0  0  0  0  0  0  0  0  0  0  0
  -12.6008  -26.9528  -37.2132 H   0  0  0  0  0  0  0  0  0  0  0  0
   -3.2554  -30.3022  -32.4901 H   0  0  0  0  0  0  0  0  0  0  0  0
   -6.8956  -30.4187  -35.8645 H   0  0  0  0  0  0  0  0  0  0  0  0
  -14.6820  -27.0614  -35.9842 H   0  0  0  0  0  0  0  0  0  0  0  0
  -14.4131  -26.2106  -37.5140 H   0  0  0  0  0  0  0  0  0  0  0  0
  -16.1516  -24.4484  -38.2534 H   0  0  0  0  0  0  0  0  0  0  0  0
   -8.0808  -26.1299  -34.5525 H   0  0  0  0  0  0  0  0  0  0  0  0
   -6.3877  -27.2895  -34.3363 H   0  0  0  0  0  0  0  0  0  0  0  0
  1  2  2  0  0  0  0
  1  3  1  0  0  0  0
  2  4  1  0  0  0  0
  3 12  2  0  0  0  0
  4 13  2  0  0  0  0
  5  8  1  0  0  0  0
  5 14  2  0  0  0  0
  6  9  2  0  0  0  0
  6 14  1  0  0  0  0
  7 10  1  0  0  0  0
  7 15  2  0  0  0  0
  8 16  2  0  0  0  0
  9 16  1  0  0  0  0
 10 17  2  0  0  0  0
 11 15  1  0  0  0  0
 11 18  2  0  0  0  0
 12 13  1  0  0  0  0
 12 22  1  0  0  0  0
 13 23  1  0  0  0  0
 14 24  1  0  0  0  0
 15 25  1  0  0  0  0
 16 26  1  0  0  0  0
 17 18  1  0  0  0  0
 17 28  1  0  0  0  0
 18 29  1  0  0  0  0
 19 21  1  0  0  0  0
 19 22  2  0  0  0  0
 19 23  1  0  0  0  0
 20 24  1  0  0  0  0
 20 25  1  0  0  0  0
 20 27  2  0  0  0  0
 21 26  1  0  0  0  0
  1 30  1  0  0  0  0
  2 31  1  0  0  0  0
  3 32  1  0  0  0  0
  4 33  1  0  0  0  0
  5 34  1  0  0  0  0
  6 35  1  0  0  0  0
  7 36  1  0  0  0  0
  8 37  1  0  0  0  0
  9 38  1  0  0  0  0
 10 39  1  0  0  0  0
 11 40  1  0  0  0  0
 21 41  1  0  0  0  0
 21 42  1  0  0  0  0
 23 43  1  0  0  0  0
 24 44  1  0  0  0  0
 25 45  1  0  0  0  0
M  END
> <Name>
EZ_21

> <SourceTag>
EZ_21

> <Activity_sEH>
270.9

> <Activity_FLAP>
0.5

> <Gold.Version>
5.2

> <Gold.Id.Protein>
6HGV|6HGV_protein|mol2

> <Gold.Goldscore.Fitness>
78.8534

> <Gold.Goldscore.Internal.Vdw>
-8.2846

> <Gold.Goldscore.Internal.Torsion>
-7.1484

> <Gold.Goldscore.External.Vdw>
61.1199

> <Gold.Goldscore.Internal.HBond>
0.0000

> <Gold.Goldscore.External.HBond>
0.0000

> <Gold.Goldscore.Internal.Correction>
-10.2466

> <Gold.Goldscore.Internal.Vdw.Weighted>
-8.2846

> <Gold.Goldscore.Internal.Torsion.Weighted>
-7.1484

> <Gold.Goldscore.External.Vdw.Weighted>
84.0398

> <Gold.Goldscore.Internal.HBond.Weighted>
0.0000

> <Gold.Goldscore.External.HBond.Weighted>
0.0000

> <Gold.Goldscore.Internal.Correction.Weighted>
-10.2466

> <Gold.Protein.RotatedTorsions>
[ 3781 1176 1175 1172 ] final    9.65 input   60.00 | X-H torsion
[ 3847 1247 1246 1244 ] final   49.59 input   60.00 | X-H torsion
[ 4507 1931 1930 1928 ] final   69.93 input   60.00 | X-H torsion
[ 3677 1070 1069 1066 ] final -164.35 input   60.00 | X-H torsion
[ 3525  925  924  922 ] final -173.79 input   59.99 | X-H torsion
[ 4531 1957 1955 1953 ] final  133.41 input   60.00 | X-H torsion

> <Gold.Protein.ActiveResidues>
 PHE267  PRO268  MET310  ASP335  TRP336  MET339  TYR343  THR360  PRO361  ILE363 
 PRO371  SER374  ILE375  ASN378  PHE381  TYR383  GLN384  PHE387  LEU408  LEU417 
 MET419  LEU428  TYR466  MET469  ASN472  ASP496  VAL498  LEU499  MET503  HIS524 
 TRP525 

> <Gold.Protein.RotatedAtoms>
   -2.2906  -30.2211  -29.3213 H   0  0  0  0  0  0  0  0  0  0  0  0  # atno 3525 bound_to 925 
  -11.1060  -22.9905  -31.2912 H   0  0  0  0  0  0  0  0  0  0  0  0  # atno 3677 bound_to 1070
  -10.8256  -37.3063  -33.5308 H   0  0  0  0  0  0  0  0  0  0  0  0  # atno 3781 bound_to 1176
  -14.9859  -28.9569  -37.2476 H   0  0  0  0  0  0  0  0  0  0  0  0  # atno 3847 bound_to 1247
  -12.5644  -24.5284  -38.8465 H   0  0  0  0  0  0  0  0  0  0  0  0  # atno 4507 bound_to 1931
   -2.1650  -34.0673  -36.8477 H   0  0  0  0  0  0  0  0  0  0  0  0  # atno 4531 bound_to 1957
   -9.5667  -36.3344  -33.8752 LP  0  0  0  0  0  0  0  0  0  0  0  0  # atno 5205 bound_to 1176
   -9.7128  -36.9894  -32.3865 LP  0  0  0  0  0  0  0  0  0  0  0  0  # atno 5206 bound_to 1176
  -16.0359  -27.7152  -37.3078 LP  0  0  0  0  0  0  0  0  0  0  0  0  # atno 5215 bound_to 1247
  -14.5441  -27.5588  -37.9532 LP  0  0  0  0  0  0  0  0  0  0  0  0  # atno 5216 bound_to 1247
  -13.6553  -25.2998  -39.7754 LP  0  0  0  0  0  0  0  0  0  0  0  0  # atno 5217 bound_to 1931
  -12.9786  -23.9063  -40.2920 LP  0  0  0  0  0  0  0  0  0  0  0  0  # atno 5218 bound_to 1931
  -12.2319  -22.2948  -30.3444 LP  0  0  0  0  0  0  0  0  0  0  0  0  # atno 5224 bound_to 1070
  -12.5221  -23.7484  -31.0296 LP  0  0  0  0  0  0  0  0  0  0  0  0  # atno 5225 bound_to 1070

$$$$
EZ_21|Lisa_paper2_min|sdf|9|dock1
  -GOLD-  10182017 63D 1   1.00000     0.00000

 45 48  0  0  0  0  0  0  0  0  1 V2000
   -2.9942  -31.6117  -32.8257 C   0  0  0  0  0  0  0  0  0  0  0  0
   -3.3919  -32.7827  -33.4750 C   0  0  0  0  0  0  0  0  0  0  0  0
   -3.7347  -30.4297  -32.9518 C   0  0  0  0  0  0  0  0  0  0  0  0
   -4.5410  -32.8162  -34.2719 C   0  0  0  0  0  0  0  0  0  0  0  0
  -11.1379  -27.0503  -36.4958 C   0  0  0  0  0  0  0  0  0  0  0  0
  -10.7235  -25.6119  -34.5994 C   0  0  0  0  0  0  0  0  0  0  0  0
  -17.2032  -25.1195  -35.1889 C   0  0  0  0  0  0  0  0  0  0  0  0
   -9.9349  -27.7141  -36.2553 C   0  0  0  0  0  0  0  0  0  0  0  0
   -9.5207  -26.2757  -34.3588 C   0  0  0  0  0  0  0  0  0  0  0  0
  -18.5909  -25.2088  -35.2974 C   0  0  0  0  0  0  0  0  0  0  0  0
  -17.0373  -24.7944  -37.5771 C   0  0  0  0  0  0  0  0  0  0  0  0
   -4.8919  -30.4453  -33.7488 C   0  0  0  0  0  0  0  0  0  0  0  0
   -5.2628  -31.6275  -34.3832 C   0  0  0  0  0  0  0  0  0  0  0  0
  -11.5322  -25.9991  -35.6679 C   0  0  0  0  0  0  0  0  0  0  0  0
  -16.4264  -24.9123  -36.3288 C   0  0  0  0  0  0  0  0  0  0  0  0
   -9.1263  -27.3269  -35.1867 C   0  0  0  0  0  0  0  0  0  0  0  0
  -19.2020  -25.0909  -36.5458 C   0  0  0  0  0  0  0  0  0  0  0  0
  -18.4251  -24.8837  -37.6857 C   0  0  0  0  0  0  0  0  0  0  0  0
   -6.6788  -29.9856  -34.8235 C   0  0  0  0  0  0  0  0  0  0  0  0
  -14.0625  -25.7836  -35.9414 C   0  0  0  0  0  0  0  0  0  0  0  0
   -7.8568  -29.3248  -35.4156 C   0  0  0  0  0  0  0  0  0  0  0  0
   -5.7832  -29.4365  -34.0338 N   0  0  0  0  0  0  0  0  0  0  0  0
   -6.4090  -31.3042  -35.0632 N   0  0  0  0  0  0  0  0  0  0  0  0
  -12.7354  -25.3350  -35.9085 N   0  0  0  0  0  0  0  0  0  0  0  0
  -15.0162  -24.8209  -36.2180 N   0  0  0  0  0  0  0  0  0  0  0  0
   -7.9468  -27.9776  -34.9507 O   0  0  0  0  0  0  0  0  0  0  0  0
  -14.3481  -27.3867  -35.5065 S   0  0  0  0  0  0  0  0  0  0  0  0
  -20.9248  -25.2136  -36.6151 Cl  0  0  0  0  0  0  0  0  0  0  0  0
  -19.1235  -24.7320  -39.2600 Cl  0  0  0  0  0  0  0  0  0  0  0  0
   -2.0964  -31.6172  -32.2125 H   0  0  0  0  0  0  0  0  0  0  0  0
   -2.7968  -33.6855  -33.3602 H   0  0  0  0  0  0  0  0  0  0  0  0
   -3.4174  -29.5255  -32.4423 H   0  0  0  0  0  0  0  0  0  0  0  0
   -4.8517  -33.7245  -34.7757 H   0  0  0  0  0  0  0  0  0  0  0  0
  -11.7603  -27.3605  -37.3313 H   0  0  0  0  0  0  0  0  0  0  0  0
  -11.0206  -24.7941  -33.9477 H   0  0  0  0  0  0  0  0  0  0  0  0
  -16.7373  -25.2112  -34.2111 H   0  0  0  0  0  0  0  0  0  0  0  0
   -9.6333  -28.5321  -36.9036 H   0  0  0  0  0  0  0  0  0  0  0  0
   -8.8949  -25.9694  -33.5249 H   0  0  0  0  0  0  0  0  0  0  0  0
  -19.1807  -25.3691  -34.3983 H   0  0  0  0  0  0  0  0  0  0  0  0
  -16.4260  -24.6341  -38.4630 H   0  0  0  0  0  0  0  0  0  0  0  0
   -7.8110  -29.3004  -36.5191 H   0  0  0  0  0  0  0  0  0  0  0  0
   -8.7970  -29.8408  -35.1508 H   0  0  0  0  0  0  0  0  0  0  0  0
   -6.9554  -31.9319  -35.6382 H   0  0  0  0  0  0  0  0  0  0  0  0
  -12.6576  -24.3226  -36.0644 H   0  0  0  0  0  0  0  0  0  0  0  0
  -14.6614  -23.8685  -36.2562 H   0  0  0  0  0  0  0  0  0  0  0  0
  1  2  2  0  0  0  0
  1  3  1  0  0  0  0
  2  4  1  0  0  0  0
  3 12  2  0  0  0  0
  4 13  2  0  0  0  0
  5  8  1  0  0  0  0
  5 14  2  0  0  0  0
  6  9  2  0  0  0  0
  6 14  1  0  0  0  0
  7 10  1  0  0  0  0
  7 15  2  0  0  0  0
  8 16  2  0  0  0  0
  9 16  1  0  0  0  0
 10 17  2  0  0  0  0
 11 15  1  0  0  0  0
 11 18  2  0  0  0  0
 12 13  1  0  0  0  0
 12 22  1  0  0  0  0
 13 23  1  0  0  0  0
 14 24  1  0  0  0  0
 15 25  1  0  0  0  0
 16 26  1  0  0  0  0
 17 18  1  0  0  0  0
 17 28  1  0  0  0  0
 18 29  1  0  0  0  0
 19 21  1  0  0  0  0
 19 22  2  0  0  0  0
 19 23  1  0  0  0  0
 20 24  1  0  0  0  0
 20 25  1  0  0  0  0
 20 27  2  0  0  0  0
 21 26  1  0  0  0  0
  1 30  1  0  0  0  0
  2 31  1  0  0  0  0
  3 32  1  0  0  0  0
  4 33  1  0  0  0  0
  5 34  1  0  0  0  0
  6 35  1  0  0  0  0
  7 36  1  0  0  0  0
  8 37  1  0  0  0  0
  9 38  1  0  0  0  0
 10 39  1  0  0  0  0
 11 40  1  0  0  0  0
 21 41  1  0  0  0  0
 21 42  1  0  0  0  0
 23 43  1  0  0  0  0
 24 44  1  0  0  0  0
 25 45  1  0  0  0  0
M  END
> <Name>
EZ_21

> <SourceTag>
EZ_21

> <Activity_sEH>
270.9

> <Activity_FLAP>
0.5

> <Gold.Version>
5.2

> <Gold.Id.Protein>
6HGV|6HGV_protein|mol2

> <Gold.Goldscore.Fitness>
78.7681

> <Gold.Goldscore.Internal.Vdw>
-3.6412

> <Gold.Goldscore.Internal.Torsion>
-12.1601

> <Gold.Goldscore.External.Vdw>
59.6018

> <Gold.Goldscore.Internal.HBond>
0.0000

> <Gold.Goldscore.External.HBond>
2.3703

> <Gold.Goldscore.Internal.Correction>
-10.2466

> <Gold.Goldscore.Hbonds>
donor molecule, donor type, donor heavy atom, donor atom, acceptor molecule, acceptor atom, score
      L1  H    24    44       P1   854  0.31
      L1  H    25    45       P1   853  0.09

> <Gold.Goldscore.Internal.Vdw.Weighted>
-3.6412

> <Gold.Goldscore.Internal.Torsion.Weighted>
-12.1601

> <Gold.Goldscore.External.Vdw.Weighted>
81.9525

> <Gold.Goldscore.Internal.HBond.Weighted>
0.0000

> <Gold.Goldscore.External.HBond.Weighted>
2.3703

> <Gold.Goldscore.Internal.Correction.Weighted>
-10.2466

> <Gold.Protein.RotatedTorsions>
[ 3781 1176 1175 1172 ] final -163.07 input   60.00 | X-H torsion
[ 3847 1247 1246 1244 ] final -135.75 input   60.00 | X-H torsion
[ 4507 1931 1930 1928 ] final   23.54 input   60.00 | X-H torsion
[ 3677 1070 1069 1066 ] final -119.31 input   60.00 | X-H torsion
[ 3525  925  924  922 ] final  144.68 input   59.99 | X-H torsion
[ 4531 1957 1955 1953 ] final   -9.76 input   60.00 | X-H torsion

> <Gold.Protein.ActiveResidues>
 PHE267  PRO268  MET310  ASP335  TRP336  MET339  TYR343  THR360  PRO361  ILE363 
 PRO371  SER374  ILE375  ASN378  PHE381  TYR383  GLN384  PHE387  LEU408  LEU417 
 MET419  LEU428  TYR466  MET469  ASN472  ASP496  VAL498  LEU499  MET503  HIS524 
 TRP525 

> <Gold.Protein.RotatedAtoms>
   -2.0555  -30.2670  -29.9404 H   0  0  0  0  0  0  0  0  0  0  0  0  # atno 3525 bound_to 925 
  -11.4715  -23.5865  -31.4509 H   0  0  0  0  0  0  0  0  0  0  0  0  # atno 3677 bound_to 1070
   -9.2423  -36.4075  -33.1100 H   0  0  0  0  0  0  0  0  0  0  0  0  # atno 3781 bound_to 1176
  -15.3110  -27.1977  -37.7930 H   0  0  0  0  0  0  0  0  0  0  0  0  # atno 3847 bound_to 1247
  -13.0003  -25.1225  -38.8772 H   0  0  0  0  0  0  0  0  0  0  0  0  # atno 4507 bound_to 1931
   -2.7417  -32.3926  -36.7091 H   0  0  0  0  0  0  0  0  0  0  0  0  # atno 4531 bound_to 1957
  -10.4222  -37.3921  -32.5750 LP  0  0  0  0  0  0  0  0  0  0  0  0  # atno 5205 bound_to 1176
  -10.4518  -36.8368  -34.1104 LP  0  0  0  0  0  0  0  0  0  0  0  0  # atno 5206 bound_to 1176
  -14.3671  -28.5162  -37.6564 LP  0  0  0  0  0  0  0  0  0  0  0  0  # atno 5215 bound_to 1247
  -15.8854  -28.5295  -37.0554 LP  0  0  0  0  0  0  0  0  0  0  0  0  # atno 5216 bound_to 1247
  -13.6462  -24.8163  -40.3391 LP  0  0  0  0  0  0  0  0  0  0  0  0  # atno 5217 bound_to 1931
  -12.5487  -23.7915  -39.6973 LP  0  0  0  0  0  0  0  0  0  0  0  0  # atno 5218 bound_to 1931
  -11.5692  -22.1947  -30.6133 LP  0  0  0  0  0  0  0  0  0  0  0  0  # atno 5224 bound_to 1070
  -12.8167  -23.2483  -30.5999 LP  0  0  0  0  0  0  0  0  0  0  0  0  # atno 5225 bound_to 1070

$$$$
EZ_21|Lisa_paper2_min|sdf|9|dock4
  -GOLD-  10182017 63D 1   1.00000     0.00000

 45 48  0  0  0  0  0  0  0  0  1 V2000
   -3.8332  -31.7238  -31.0149 C   0  0  0  0  0  0  0  0  0  0  0  0
   -3.0358  -31.7815  -32.1603 C   0  0  0  0  0  0  0  0  0  0  0  0
   -5.1313  -31.2002  -31.0652 C   0  0  0  0  0  0  0  0  0  0  0  0
   -3.5043  -31.3199  -33.3948 C   0  0  0  0  0  0  0  0  0  0  0  0
  -11.0413  -27.1159  -36.1613 C   0  0  0  0  0  0  0  0  0  0  0  0
  -10.5474  -25.4277  -34.5049 C   0  0  0  0  0  0  0  0  0  0  0  0
  -17.0974  -25.1493  -35.4448 C   0  0  0  0  0  0  0  0  0  0  0  0
   -9.8506  -27.7714  -35.8483 C   0  0  0  0  0  0  0  0  0  0  0  0
   -9.3567  -26.0833  -34.1919 C   0  0  0  0  0  0  0  0  0  0  0  0
  -18.4697  -25.2542  -35.6714 C   0  0  0  0  0  0  0  0  0  0  0  0
  -16.7381  -24.7593  -37.8019 C   0  0  0  0  0  0  0  0  0  0  0  0
   -5.6180  -30.7316  -32.2973 C   0  0  0  0  0  0  0  0  0  0  0  0
   -4.7998  -30.8026  -33.4212 C   0  0  0  0  0  0  0  0  0  0  0  0
  -11.3897  -25.9439  -35.4896 C   0  0  0  0  0  0  0  0  0  0  0  0
  -16.2316  -24.9019  -36.5101 C   0  0  0  0  0  0  0  0  0  0  0  0
   -9.0083  -27.2553  -34.8636 C   0  0  0  0  0  0  0  0  0  0  0  0
  -18.9764  -25.1116  -36.9632 C   0  0  0  0  0  0  0  0  0  0  0  0
  -18.1105  -24.8642  -38.0285 C   0  0  0  0  0  0  0  0  0  0  0  0
   -6.7701  -29.9176  -33.9002 C   0  0  0  0  0  0  0  0  0  0  0  0
  -13.8925  -25.7540  -35.9630 C   0  0  0  0  0  0  0  0  0  0  0  0
   -7.8260  -29.3147  -34.7348 C   0  0  0  0  0  0  0  0  0  0  0  0
   -6.8378  -30.1794  -32.6141 N   0  0  0  0  0  0  0  0  0  0  0  0
   -5.5623  -30.2752  -34.4317 N   0  0  0  0  0  0  0  0  0  0  0  0
  -12.5807  -25.2880  -35.8027 N   0  0  0  0  0  0  0  0  0  0  0  0
  -14.8372  -24.7947  -36.2795 N   0  0  0  0  0  0  0  0  0  0  0  0
   -7.8408  -27.8980  -34.5566 O   0  0  0  0  0  0  0  0  0  0  0  0
  -14.1843  -27.3774  -35.6168 S   0  0  0  0  0  0  0  0  0  0  0  0
  -20.6854  -25.2553  -37.1795 Cl  0  0  0  0  0  0  0  0  0  0  0  0
  -18.6774  -24.6804  -39.6514 Cl  0  0  0  0  0  0  0  0  0  0  0  0
   -3.4412  -32.0910  -30.0698 H   0  0  0  0  0  0  0  0  0  0  0  0
   -2.0312  -32.1919  -32.0915 H   0  0  0  0  0  0  0  0  0  0  0  0
   -5.7429  -31.1608  -30.1695 H   0  0  0  0  0  0  0  0  0  0  0  0
   -2.8872  -31.3649  -34.2849 H   0  0  0  0  0  0  0  0  0  0  0  0
  -11.6903  -27.5271  -36.9303 H   0  0  0  0  0  0  0  0  0  0  0  0
  -10.8085  -24.5152  -33.9751 H   0  0  0  0  0  0  0  0  0  0  0  0
  -16.7133  -25.2606  -34.4341 H   0  0  0  0  0  0  0  0  0  0  0  0
   -9.5848  -28.6839  -36.3749 H   0  0  0  0  0  0  0  0  0  0  0  0
   -8.7046  -25.6763  -33.4240 H   0  0  0  0  0  0  0  0  0  0  0  0
  -19.1299  -25.4459  -34.8291 H   0  0  0  0  0  0  0  0  0  0  0  0
  -16.0576  -24.5677  -38.6292 H   0  0  0  0  0  0  0  0  0  0  0  0
   -7.6763  -29.5198  -35.8100 H   0  0  0  0  0  0  0  0  0  0  0  0
   -8.8281  -29.7016  -34.4770 H   0  0  0  0  0  0  0  0  0  0  0  0
   -5.2791  -30.1714  -35.3971 H   0  0  0  0  0  0  0  0  0  0  0  0
  -12.5084  -24.2691  -35.9115 H   0  0  0  0  0  0  0  0  0  0  0  0
  -14.4974  -23.8365  -36.2505 H   0  0  0  0  0  0  0  0  0  0  0  0
  1  2  2  0  0  0  0
  1  3  1  0  0  0  0
  2  4  1  0  0  0  0
  3 12  2  0  0  0  0
  4 13  2  0  0  0  0
  5  8  1  0  0  0  0
  5 14  2  0  0  0  0
  6  9  2  0  0  0  0
  6 14  1  0  0  0  0
  7 10  1  0  0  0  0
  7 15  2  0  0  0  0
  8 16  2  0  0  0  0
  9 16  1  0  0  0  0
 10 17  2  0  0  0  0
 11 15  1  0  0  0  0
 11 18  2  0  0  0  0
 12 13  1  0  0  0  0
 12 22  1  0  0  0  0
 13 23  1  0  0  0  0
 14 24  1  0  0  0  0
 15 25  1  0  0  0  0
 16 26  1  0  0  0  0
 17 18  1  0  0  0  0
 17 28  1  0  0  0  0
 18 29  1  0  0  0  0
 19 21  1  0  0  0  0
 19 22  2  0  0  0  0
 19 23  1  0  0  0  0
 20 24  1  0  0  0  0
 20 25  1  0  0  0  0
 20 27  2  0  0  0  0
 21 26  1  0  0  0  0
  1 30  1  0  0  0  0
  2 31  1  0  0  0  0
  3 32  1  0  0  0  0
  4 33  1  0  0  0  0
  5 34  1  0  0  0  0
  6 35  1  0  0  0  0
  7 36  1  0  0  0  0
  8 37  1  0  0  0  0
  9 38  1  0  0  0  0
 10 39  1  0  0  0  0
 11 40  1  0  0  0  0
 21 41  1  0  0  0  0
 21 42  1  0  0  0  0
 23 43  1  0  0  0  0
 24 44  1  0  0  0  0
 25 45  1  0  0  0  0
M  END
> <Name>
EZ_21

> <SourceTag>
EZ_21

> <Activity_sEH>
270.9

> <Activity_FLAP>
0.5

> <Gold.Version>
5.2

> <Gold.Id.Protein>
6HGV|6HGV_protein|mol2

> <Gold.Goldscore.Fitness>
76.2036

> <Gold.Goldscore.Internal.Vdw>
-1.9292

> <Gold.Goldscore.Internal.Torsion>
-11.6927

> <Gold.Goldscore.External.Vdw>
56.2851

> <Gold.Goldscore.Internal.HBond>
0.0000

> <Gold.Goldscore.External.HBond>
2.4823

> <Gold.Goldscore.Internal.Correction>
-9.9513

> <Gold.Goldscore.Hbonds>
donor molecule, donor type, donor heavy atom, donor atom, acceptor molecule, acceptor atom, score
      L1  H    24    44       P1   854  0.29
      L1  H    25    45       P1   853  0.12

> <Gold.Goldscore.Internal.Vdw.Weighted>
-1.9292

> <Gold.Goldscore.Internal.Torsion.Weighted>
-11.6927

> <Gold.Goldscore.External.Vdw.Weighted>
77.3920

> <Gold.Goldscore.Internal.HBond.Weighted>
0.0000

> <Gold.Goldscore.External.HBond.Weighted>
2.4823

> <Gold.Goldscore.Internal.Correction.Weighted>
-9.9513

> <Gold.Protein.RotatedTorsions>
[ 3781 1176 1175 1172 ] final  166.77 input   60.00 | X-H torsion
[ 3847 1247 1246 1244 ] final  -72.20 input   60.00 | X-H torsion
[ 4507 1931 1930 1928 ] final   21.13 input   60.00 | X-H torsion
[ 3677 1070 1069 1066 ] final  -93.85 input   60.00 | X-H torsion
[ 3525  925  924  922 ] final -107.28 input   59.99 | X-H torsion
[ 4531 1957 1955 1953 ] final   26.93 input   60.00 | X-H torsion

> <Gold.Protein.ActiveResidues>
 PHE267  PRO268  MET310  ASP335  TRP336  MET339  TYR343  THR360  PRO361  ILE363 
 PRO371  SER374  ILE375  ASN378  PHE381  TYR383  GLN384  PHE387  LEU408  LEU417 
 MET419  LEU428  TYR466  MET469  ASN472  ASP496  VAL498  LEU499  MET503  HIS524 
 TRP525 

> <Gold.Protein.RotatedAtoms>
   -3.2072  -29.8463  -29.0504 H   0  0  0  0  0  0  0  0  0  0  0  0  # atno 3525 bound_to 925 
  -11.8255  -23.7903  -31.3930 H   0  0  0  0  0  0  0  0  0  0  0  0  # atno 3677 bound_to 1070
   -9.3412  -36.6313  -32.6887 H   0  0  0  0  0  0  0  0  0  0  0  0  # atno 3781 bound_to 1176
  -16.0225  -27.6935  -37.3241 H   0  0  0  0  0  0  0  0  0  0  0  0  # atno 3847 bound_to 1247
  -13.0269  -25.1468  -38.8934 H   0  0  0  0  0  0  0  0  0  0  0  0  # atno 4507 bound_to 1931
   -3.0650  -32.8824  -36.6561 H   0  0  0  0  0  0  0  0  0  0  0  0  # atno 4531 bound_to 1957
  -10.7223  -37.4484  -32.9591 LP  0  0  0  0  0  0  0  0  0  0  0  0  # atno 5205 bound_to 1176
  -10.0521  -36.5551  -34.1505 LP  0  0  0  0  0  0  0  0  0  0  0  0  # atno 5206 bound_to 1176
  -14.5253  -27.5816  -37.9518 LP  0  0  0  0  0  0  0  0  0  0  0  0  # atno 5215 bound_to 1247
  -15.0107  -28.9647  -37.2322 LP  0  0  0  0  0  0  0  0  0  0  0  0  # atno 5216 bound_to 1247
  -13.6346  -24.7837  -40.3586 LP  0  0  0  0  0  0  0  0  0  0  0  0  # atno 5217 bound_to 1931
  -12.5335  -23.7997  -39.6615 LP  0  0  0  0  0  0  0  0  0  0  0  0  # atno 5218 bound_to 1931
  -11.2719  -22.3586  -30.8527 LP  0  0  0  0  0  0  0  0  0  0  0  0  # atno 5224 bound_to 1070
  -12.7576  -22.8792  -30.4188 LP  0  0  0  0  0  0  0  0  0  0  0  0  # atno 5225 bound_to 1070

$$$$
EZ_21|Lisa_paper2_min|sdf|9|dock7
  -GOLD-  10182017 63D 1   1.00000     0.00000

 45 48  0  0  0  0  0  0  0  0  1 V2000
   -2.7731  -30.9780  -32.6171 C   0  0  0  0  0  0  0  0  0  0  0  0
   -3.3264  -32.2469  -32.8033 C   0  0  0  0  0  0  0  0  0  0  0  0
   -3.4728  -29.8238  -32.9910 C   0  0  0  0  0  0  0  0  0  0  0  0
   -4.5957  -32.4094  -33.3682 C   0  0  0  0  0  0  0  0  0  0  0  0
  -10.6187  -25.1965  -34.8243 C   0  0  0  0  0  0  0  0  0  0  0  0
  -11.3156  -27.1039  -36.1333 C   0  0  0  0  0  0  0  0  0  0  0  0
  -17.2510  -25.1191  -35.2019 C   0  0  0  0  0  0  0  0  0  0  0  0
   -9.4058  -25.8280  -34.5496 C   0  0  0  0  0  0  0  0  0  0  0  0
  -10.1026  -27.7355  -35.8586 C   0  0  0  0  0  0  0  0  0  0  0  0
  -18.6368  -25.2368  -35.3086 C   0  0  0  0  0  0  0  0  0  0  0  0
  -17.1015  -24.7233  -37.5805 C   0  0  0  0  0  0  0  0  0  0  0  0
   -4.7493  -29.9686  -33.5603 C   0  0  0  0  0  0  0  0  0  0  0  0
   -5.2742  -31.2463  -33.7331 C   0  0  0  0  0  0  0  0  0  0  0  0
  -11.5737  -25.8344  -35.6161 C   0  0  0  0  0  0  0  0  0  0  0  0
  -16.4834  -24.8625  -36.3379 C   0  0  0  0  0  0  0  0  0  0  0  0
   -9.1476  -27.0975  -35.0668 C   0  0  0  0  0  0  0  0  0  0  0  0
  -19.2551  -25.0977  -36.5512 C   0  0  0  0  0  0  0  0  0  0  0  0
  -18.4874  -24.8410  -37.6872 C   0  0  0  0  0  0  0  0  0  0  0  0
   -6.6730  -29.6861  -34.4431 C   0  0  0  0  0  0  0  0  0  0  0  0
  -14.1065  -25.6745  -35.9044 C   0  0  0  0  0  0  0  0  0  0  0  0
   -7.9057  -29.1252  -35.0269 C   0  0  0  0  0  0  0  0  0  0  0  0
   -5.6322  -29.0124  -34.0068 N   0  0  0  0  0  0  0  0  0  0  0  0
   -6.5052  -31.0352  -34.2994 N   0  0  0  0  0  0  0  0  0  0  0  0
  -12.7870  -25.2028  -35.8908 N   0  0  0  0  0  0  0  0  0  0  0  0
  -15.0753  -24.7423  -36.2291 N   0  0  0  0  0  0  0  0  0  0  0  0
   -7.9584  -27.7168  -34.7976 O   0  0  0  0  0  0  0  0  0  0  0  0
  -14.3666  -27.2592  -35.3931 S   0  0  0  0  0  0  0  0  0  0  0  0
  -20.9750  -25.2573  -36.6185 Cl  0  0  0  0  0  0  0  0  0  0  0  0
  -19.1949  -24.6608  -39.2544 Cl  0  0  0  0  0  0  0  0  0  0  0  0
   -1.7844  -30.8839  -32.1748 H   0  0  0  0  0  0  0  0  0  0  0  0
   -2.7597  -33.1256  -32.5048 H   0  0  0  0  0  0  0  0  0  0  0  0
   -3.0341  -28.8426  -32.8411 H   0  0  0  0  0  0  0  0  0  0  0  0
   -5.0271  -33.3934  -33.5125 H   0  0  0  0  0  0  0  0  0  0  0  0
  -10.8092  -24.2071  -34.4162 H   0  0  0  0  0  0  0  0  0  0  0  0
  -12.0523  -27.6106  -36.7513 H   0  0  0  0  0  0  0  0  0  0  0  0
  -16.7795  -25.2278  -34.2285 H   0  0  0  0  0  0  0  0  0  0  0  0
   -8.6659  -25.3260  -33.9324 H   0  0  0  0  0  0  0  0  0  0  0  0
   -9.9074  -28.7244  -36.2642 H   0  0  0  0  0  0  0  0  0  0  0  0
  -19.2194  -25.4355  -34.4124 H   0  0  0  0  0  0  0  0  0  0  0  0
  -16.4973  -24.5244  -38.4635 H   0  0  0  0  0  0  0  0  0  0  0  0
   -7.9655  -29.2938  -36.1170 H   0  0  0  0  0  0  0  0  0  0  0  0
   -8.8135  -29.5767  -34.5881 H   0  0  0  0  0  0  0  0  0  0  0  0
   -7.1687  -31.7520  -34.5621 H   0  0  0  0  0  0  0  0  0  0  0  0
  -12.7256  -24.1980  -36.0953 H   0  0  0  0  0  0  0  0  0  0  0  0
  -14.7361  -23.7871  -36.3125 H   0  0  0  0  0  0  0  0  0  0  0  0
  1  2  2  0  0  0  0
  1  3  1  0  0  0  0
  2  4  1  0  0  0  0
  3 12  2  0  0  0  0
  4 13  2  0  0  0  0
  5  8  1  0  0  0  0
  5 14  2  0  0  0  0
  6  9  2  0  0  0  0
  6 14  1  0  0  0  0
  7 10  1  0  0  0  0
  7 15  2  0  0  0  0
  8 16  2  0  0  0  0
  9 16  1  0  0  0  0
 10 17  2  0  0  0  0
 11 15  1  0  0  0  0
 11 18  2  0  0  0  0
 12 13  1  0  0  0  0
 12 22  1  0  0  0  0
 13 23  1  0  0  0  0
 14 24  1  0  0  0  0
 15 25  1  0  0  0  0
 16 26  1  0  0  0  0
 17 18  1  0  0  0  0
 17 28  1  0  0  0  0
 18 29  1  0  0  0  0
 19 21  1  0  0  0  0
 19 22  2  0  0  0  0
 19 23  1  0  0  0  0
 20 24  1  0  0  0  0
 20 25  1  0  0  0  0
 20 27  2  0  0  0  0
 21 26  1  0  0  0  0
  1 30  1  0  0  0  0
  2 31  1  0  0  0  0
  3 32  1  0  0  0  0
  4 33  1  0  0  0  0
  5 34  1  0  0  0  0
  6 35  1  0  0  0  0
  7 36  1  0  0  0  0
  8 37  1  0  0  0  0
  9 38  1  0  0  0  0
 10 39  1  0  0  0  0
 11 40  1  0  0  0  0
 21 41  1  0  0  0  0
 21 42  1  0  0  0  0
 23 43  1  0  0  0  0
 24 44  1  0  0  0  0
 25 45  1  0  0  0  0
M  END
> <Name>
EZ_21

> <SourceTag>
EZ_21

> <Activity_sEH>
270.9

> <Activity_FLAP>
0.5

> <Gold.Version>
5.2

> <Gold.Id.Protein>
6HGV|6HGV_protein|mol2

> <Gold.Goldscore.Fitness>
76.1535

> <Gold.Goldscore.Internal.Vdw>
-6.0478

> <Gold.Goldscore.Internal.Torsion>
-9.7141

> <Gold.Goldscore.External.Vdw>
57.9243

> <Gold.Goldscore.Internal.HBond>
0.0000

> <Gold.Goldscore.External.HBond>
2.3181

> <Gold.Goldscore.Internal.Correction>
-9.9513

> <Gold.Goldscore.Hbonds>
donor molecule, donor type, donor heavy atom, donor atom, acceptor molecule, acceptor atom, score
      L1  H    24    44       P1   854  0.34
      L1  H    25    45       P1   853  0.05

> <Gold.Goldscore.Internal.Vdw.Weighted>
-6.0478

> <Gold.Goldscore.Internal.Torsion.Weighted>
-9.7141

> <Gold.Goldscore.External.Vdw.Weighted>
79.6459

> <Gold.Goldscore.Internal.HBond.Weighted>
0.0000

> <Gold.Goldscore.External.HBond.Weighted>
2.3181

> <Gold.Goldscore.Internal.Correction.Weighted>
-9.9513

> <Gold.Protein.RotatedTorsions>
[ 3781 1176 1175 1172 ] final   38.56 input   60.00 | X-H torsion
[ 3847 1247 1246 1244 ] final -131.91 input   60.00 | X-H torsion
[ 4507 1931 1930 1928 ] final   65.68 input   60.00 | X-H torsion
[ 3677 1070 1069 1066 ] final -101.84 input   60.00 | X-H torsion
[ 3525  925  924  922 ] final  -29.50 input   59.99 | X-H torsion
[ 4531 1957 1955 1953 ] final  -25.53 input   60.00 | X-H torsion

> <Gold.Protein.ActiveResidues>
 PHE267  PRO268  MET310  ASP335  TRP336  MET339  TYR343  THR360  PRO361  ILE363 
 PRO371  SER374  ILE375  ASN378  PHE381  TYR383  GLN384  PHE387  LEU408  LEU417 
 MET419  LEU428  TYR466  MET469  ASN472  ASP496  VAL498  LEU499  MET503  HIS524 
 TRP525 

> <Gold.Protein.RotatedAtoms>
   -3.7646  -29.5136  -30.0305 H   0  0  0  0  0  0  0  0  0  0  0  0  # atno 3525 bound_to 925 
  -11.7084  -23.7413  -31.4226 H   0  0  0  0  0  0  0  0  0  0  0  0  # atno 3677 bound_to 1070
  -10.7677  -37.4346  -33.0851 H   0  0  0  0  0  0  0  0  0  0  0  0  # atno 3781 bound_to 1176
  -15.3690  -27.2001  -37.7693 H   0  0  0  0  0  0  0  0  0  0  0  0  # atno 3847 bound_to 1247
  -12.5946  -24.5878  -38.8267 H   0  0  0  0  0  0  0  0  0  0  0  0  # atno 4507 bound_to 1931
   -2.5227  -32.2641  -36.7485 H   0  0  0  0  0  0  0  0  0  0  0  0  # atno 4531 bound_to 1957
   -9.9379  -36.4907  -34.1188 LP  0  0  0  0  0  0  0  0  0  0  0  0  # atno 5205 bound_to 1176
   -9.4000  -36.7038  -32.5917 LP  0  0  0  0  0  0  0  0  0  0  0  0  # atno 5206 bound_to 1176
  -14.3468  -28.4635  -37.6845 LP  0  0  0  0  0  0  0  0  0  0  0  0  # atno 5215 bound_to 1247
  -15.8474  -28.5797  -37.0511 LP  0  0  0  0  0  0  0  0  0  0  0  0  # atno 5216 bound_to 1247
  -13.6715  -25.2712  -39.8372 LP  0  0  0  0  0  0  0  0  0  0  0  0  # atno 5217 bound_to 1931
  -12.9320  -23.8751  -40.2501 LP  0  0  0  0  0  0  0  0  0  0  0  0  # atno 5218 bound_to 1931
  -11.3532  -22.2915  -30.7746 LP  0  0  0  0  0  0  0  0  0  0  0  0  # atno 5224 bound_to 1070
  -12.7942  -22.9955  -30.4671 LP  0  0  0  0  0  0  0  0  0  0  0  0  # atno 5225 bound_to 1070

$$$$
Livi_174a|Lisa_paper2_min|sdf|10|dock2
  -GOLD-  10182017 83D 1   1.00000     0.00000

 63 66  0  0  0  0  0  0  0  0  1 V2000
   -3.5035  -31.0895  -33.0253 C   0  0  0  0  0  0  0  0  0  0  0  0
   -4.2737  -32.1595  -33.4761 C   0  0  0  0  0  0  0  0  0  0  0  0
   -3.9829  -29.7791  -33.1101 C   0  0  0  0  0  0  0  0  0  0  0  0
   -5.5450  -31.9571  -34.0248 C   0  0  0  0  0  0  0  0  0  0  0  0
  -11.5538  -25.8467  -36.0257 C   0  0  0  0  0  0  0  0  0  0  0  0
  -18.1517  -25.2562  -35.6005 C   0  0  0  0  0  0  0  0  0  0  0  0
  -10.4050  -26.3718  -35.4340 C   0  0  0  0  0  0  0  0  0  0  0  0
  -19.5356  -25.1010  -35.5222 C   0  0  0  0  0  0  0  0  0  0  0  0
  -12.8486  -27.6858  -35.1433 C   0  0  0  0  0  0  0  0  0  0  0  0
  -18.2649  -25.0515  -38.0051 C   0  0  0  0  0  0  0  0  0  0  0  0
  -11.6997  -28.2108  -34.5516 C   0  0  0  0  0  0  0  0  0  0  0  0
   -5.2584  -29.5577  -33.6592 C   0  0  0  0  0  0  0  0  0  0  0  0
   -6.0182  -30.6394  -34.1062 C   0  0  0  0  0  0  0  0  0  0  0  0
  -12.7757  -26.5038  -35.8803 C   0  0  0  0  0  0  0  0  0  0  0  0
  -17.5163  -25.2314  -36.8421 C   0  0  0  0  0  0  0  0  0  0  0  0
  -10.4779  -27.5538  -34.6971 C   0  0  0  0  0  0  0  0  0  0  0  0
  -20.2843  -24.9213  -36.6853 C   0  0  0  0  0  0  0  0  0  0  0  0
  -19.6489  -24.8965  -37.9268 C   0  0  0  0  0  0  0  0  0  0  0  0
   -7.0717  -28.7158  -34.3876 C   0  0  0  0  0  0  0  0  0  0  0  0
   -8.2925  -30.7493  -35.1345 C   0  0  0  0  0  0  0  0  0  0  0  0
  -15.2653  -26.0555  -36.0218 C   0  0  0  0  0  0  0  0  0  0  0  0
  -11.7960  -29.4770  -33.7661 C   0  0  0  0  0  0  0  0  0  0  0  0
   -8.7717  -34.3559  -35.4699 C   0  0  0  0  0  0  0  0  0  0  0  0
   -9.9900  -32.7724  -33.9475 C   0  0  0  0  0  0  0  0  0  0  0  0
  -10.0614  -32.4212  -36.4334 C   0  0  0  0  0  0  0  0  0  0  0  0
   -8.1061  -27.7204  -34.7525 C   0  0  0  0  0  0  0  0  0  0  0  0
   -9.2169  -32.9097  -35.2574 C   0  0  0  0  0  0  0  0  0  0  0  0
   -5.9274  -28.3777  -33.8423 N   0  0  0  0  0  0  0  0  0  0  0  0
   -7.1982  -30.0772  -34.5785 N   0  0  0  0  0  0  0  0  0  0  0  0
  -13.9247  -25.9783  -36.4722 N   0  0  0  0  0  0  0  0  0  0  0  0
  -16.1123  -25.3882  -36.9210 N   0  0  0  0  0  0  0  0  0  0  0  0
   -9.2814  -30.1461  -35.5172 O   0  0  0  0  0  0  0  0  0  0  0  0
  -15.6258  -26.6236  -34.9959 O   0  0  0  0  0  0  0  0  0  0  0  0
   -9.3410  -28.0548  -34.1231 O   0  0  0  0  0  0  0  0  0  0  0  0
   -8.0523  -32.0847  -35.1590 O   0  0  0  0  0  0  0  0  0  0  0  0
  -21.9955  -24.7378  -36.5226 Cl  0  0  0  0  0  0  0  0  0  0  0  0
  -20.5220  -24.6794  -39.4032 Cl  0  0  0  0  0  0  0  0  0  0  0  0
   -2.5194  -31.2741  -32.6033 H   0  0  0  0  0  0  0  0  0  0  0  0
   -3.8810  -33.1705  -33.4011 H   0  0  0  0  0  0  0  0  0  0  0  0
   -3.3770  -28.9503  -32.7572 H   0  0  0  0  0  0  0  0  0  0  0  0
   -6.1239  -32.8062  -34.3683 H   0  0  0  0  0  0  0  0  0  0  0  0
  -11.4851  -24.9250  -36.5979 H   0  0  0  0  0  0  0  0  0  0  0  0
  -17.5776  -25.3942  -34.6879 H   0  0  0  0  0  0  0  0  0  0  0  0
   -9.4563  -25.8549  -35.5511 H   0  0  0  0  0  0  0  0  0  0  0  0
  -20.0139  -25.1215  -34.5460 H   0  0  0  0  0  0  0  0  0  0  0  0
  -13.8008  -28.1993  -35.0290 H   0  0  0  0  0  0  0  0  0  0  0  0
  -17.7637  -25.0344  -38.9709 H   0  0  0  0  0  0  0  0  0  0  0  0
  -11.8885  -30.3365  -34.4404 H   0  0  0  0  0  0  0  0  0  0  0  0
  -10.9098  -29.6212  -33.1358 H   0  0  0  0  0  0  0  0  0  0  0  0
  -12.6650  -29.4632  -33.0963 H   0  0  0  0  0  0  0  0  0  0  0  0
   -9.6268  -35.0390  -35.4142 H   0  0  0  0  0  0  0  0  0  0  0  0
   -8.2829  -34.4890  -36.4406 H   0  0  0  0  0  0  0  0  0  0  0  0
   -8.0739  -34.6696  -34.6851 H   0  0  0  0  0  0  0  0  0  0  0  0
   -9.4786  -33.3015  -33.1353 H   0  0  0  0  0  0  0  0  0  0  0  0
  -10.9848  -33.2244  -34.0322 H   0  0  0  0  0  0  0  0  0  0  0  0
  -10.1094  -31.7236  -33.6569 H   0  0  0  0  0  0  0  0  0  0  0  0
  -10.7743  -31.6536  -36.1108 H   0  0  0  0  0  0  0  0  0  0  0  0
   -9.4387  -32.0014  -37.2301 H   0  0  0  0  0  0  0  0  0  0  0  0
  -10.6573  -33.2402  -36.8521 H   0  0  0  0  0  0  0  0  0  0  0  0
   -7.8253  -26.7017  -34.4384 H   0  0  0  0  0  0  0  0  0  0  0  0
   -8.2714  -27.6858  -35.8418 H   0  0  0  0  0  0  0  0  0  0  0  0
  -13.7793  -25.4684  -37.3500 H   0  0  0  0  0  0  0  0  0  0  0  0
  -15.6685  -24.9634  -37.7314 H   0  0  0  0  0  0  0  0  0  0  0  0
  1  2  2  0  0  0  0
  1  3  1  0  0  0  0
  2  4  1  0  0  0  0
  3 12  2  0  0  0  0
  4 13  2  0  0  0  0
  5  7  2  0  0  0  0
  5 14  1  0  0  0  0
  6  8  1  0  0  0  0
  6 15  2  0  0  0  0
  7 16  1  0  0  0  0
  8 17  2  0  0  0  0
  9 11  1  0  0  0  0
  9 14  2  0  0  0  0
 10 15  1  0  0  0  0
 10 18  2  0  0  0  0
 11 16  2  0  0  0  0
 11 22  1  0  0  0  0
 12 13  1  0  0  0  0
 12 28  1  0  0  0  0
 13 29  1  0  0  0  0
 14 30  1  0  0  0  0
 15 31  1  0  0  0  0
 16 34  1  0  0  0  0
 17 18  1  0  0  0  0
 17 36  1  0  0  0  0
 18 37  1  0  0  0  0
 19 26  1  0  0  0  0
 19 28  2  0  0  0  0
 19 29  1  0  0  0  0
 20 29  1  0  0  0  0
 20 32  2  0  0  0  0
 20 35  1  0  0  0  0
 21 30  1  0  0  0  0
 21 31  1  0  0  0  0
 21 33  2  0  0  0  0
 23 27  1  0  0  0  0
 24 27  1  0  0  0  0
 25 27  1  0  0  0  0
 26 34  1  0  0  0  0
 27 35  1  0  0  0  0
  1 38  1  0  0  0  0
  2 39  1  0  0  0  0
  3 40  1  0  0  0  0
  4 41  1  0  0  0  0
  5 42  1  0  0  0  0
  6 43  1  0  0  0  0
  7 44  1  0  0  0  0
  8 45  1  0  0  0  0
  9 46  1  0  0  0  0
 10 47  1  0  0  0  0
 22 48  1  0  0  0  0
 22 49  1  0  0  0  0
 22 50  1  0  0  0  0
 23 51  1  0  0  0  0
 23 52  1  0  0  0  0
 23 53  1  0  0  0  0
 24 54  1  0  0  0  0
 24 55  1  0  0  0  0
 24 56  1  0  0  0  0
 25 57  1  0  0  0  0
 25 58  1  0  0  0  0
 25 59  1  0  0  0  0
 26 60  1  0  0  0  0
 26 61  1  0  0  0  0
 30 62  1  0  0  0  0
 31 63  1  0  0  0  0
M  END
> <Clean Energy>
84.5744

> <SourceTag>
Livi_174a

> <Activity_FLAP>
100

> <Activity_sEH>
0.7

> <Gold.Version>
5.2

> <Gold.Id.Protein>
6HGV|6HGV_protein|mol2

> <Gold.Goldscore.Fitness>
88.5533

> <Gold.Goldscore.Internal.Vdw>
-12.0749

> <Gold.Goldscore.Internal.Torsion>
-8.9743

> <Gold.Goldscore.External.Vdw>
64.3194

> <Gold.Goldscore.Internal.HBond>
0.0000

> <Gold.Goldscore.External.HBond>
0.7484

> <Gold.Goldscore.Internal.Correction>
-20.4149

> <Gold.Goldscore.Hbonds>
donor molecule, donor type, donor heavy atom, donor atom, acceptor molecule, acceptor atom, score
      P1  H  1256  3854       L1    32  0.02
      L1  H    30    62       P1  1931  0.36

> <Gold.Goldscore.Internal.Vdw.Weighted>
-12.0749

> <Gold.Goldscore.Internal.Torsion.Weighted>
-8.9743

> <Gold.Goldscore.External.Vdw.Weighted>
88.4392

> <Gold.Goldscore.Internal.HBond.Weighted>
0.0000

> <Gold.Goldscore.External.HBond.Weighted>
0.7484

> <Gold.Goldscore.Internal.Correction.Weighted>
-20.4149

> <Gold.Protein.RotatedTorsions>
[ 3781 1176 1175 1172 ] final  -18.25 input   60.00 | X-H torsion
[ 3847 1247 1246 1244 ] final  108.00 input   60.00 | X-H torsion
[ 4507 1931 1930 1928 ] final -139.81 input   60.00 | X-H torsion
[ 3677 1070 1069 1066 ] final   -5.76 input   60.00 | X-H torsion
[ 3525  925  924  922 ] final  -24.92 input   59.99 | X-H torsion
[ 4531 1957 1955 1953 ] final   -3.99 input   60.00 | X-H torsion

> <Gold.Protein.ActiveResidues>
 PHE267  PRO268  MET310  ASP335  TRP336  MET339  TYR343  THR360  PRO361  ILE363 
 PRO371  SER374  ILE375  ASN378  PHE381  TYR383  GLN384  PHE387  LEU408  LEU417 
 MET419  LEU428  TYR466  MET469  ASN472  ASP496  VAL498  LEU499  MET503  HIS524 
 TRP525 

> <Gold.Protein.RotatedAtoms>
   -3.7526  -29.5121  -30.1044 H   0  0  0  0  0  0  0  0  0  0  0  0  # atno 3525 bound_to 925 
  -12.7979  -23.3361  -30.6562 H   0  0  0  0  0  0  0  0  0  0  0  0  # atno 3677 bound_to 1070
  -10.6946  -37.0808  -33.8993 H   0  0  0  0  0  0  0  0  0  0  0  0  # atno 3781 bound_to 1176
  -14.3539  -28.4628  -37.6847 H   0  0  0  0  0  0  0  0  0  0  0  0  # atno 3847 bound_to 1247
  -13.3048  -24.2263  -40.4699 H   0  0  0  0  0  0  0  0  0  0  0  0  # atno 4507 bound_to 1931
   -2.8120  -32.4541  -36.6968 H   0  0  0  0  0  0  0  0  0  0  0  0  # atno 4531 bound_to 1957
   -9.3189  -36.3115  -33.4947 LP  0  0  0  0  0  0  0  0  0  0  0  0  # atno 5205 bound_to 1176
  -10.0926  -37.2393  -32.3958 LP  0  0  0  0  0  0  0  0  0  0  0  0  # atno 5206 bound_to 1176
  -15.8483  -28.5786  -37.0512 LP  0  0  0  0  0  0  0  0  0  0  0  0  # atno 5215 bound_to 1247
  -15.3680  -27.1930  -37.7697 LP  0  0  0  0  0  0  0  0  0  0  0  0  # atno 5216 bound_to 1247
  -12.4343  -24.1284  -39.0985 LP  0  0  0  0  0  0  0  0  0  0  0  0  # atno 5217 bound_to 1931
  -13.4540  -25.3819  -39.3340 LP  0  0  0  0  0  0  0  0  0  0  0  0  # atno 5218 bound_to 1931
  -11.3912  -23.5174  -31.4540 LP  0  0  0  0  0  0  0  0  0  0  0  0  # atno 5224 bound_to 1070
  -11.6590  -22.1777  -30.5594 LP  0  0  0  0  0  0  0  0  0  0  0  0  # atno 5225 bound_to 1070

$$$$
Livi_174a|Lisa_paper2_min|sdf|10|dock1
  -GOLD-  10182017 73D 1   1.00000     0.00000

 63 66  0  0  0  0  0  0  0  0  1 V2000
   -3.1663  -30.3962  -32.9470 C   0  0  0  0  0  0  0  0  0  0  0  0
   -3.5828  -31.7163  -33.1060 C   0  0  0  0  0  0  0  0  0  0  0  0
   -3.9853  -29.3361  -33.3465 C   0  0  0  0  0  0  0  0  0  0  0  0
   -4.8278  -32.0208  -33.6676 C   0  0  0  0  0  0  0  0  0  0  0  0
  -11.7363  -26.9133  -36.6954 C   0  0  0  0  0  0  0  0  0  0  0  0
  -17.6638  -24.1060  -37.7006 C   0  0  0  0  0  0  0  0  0  0  0  0
  -10.5215  -27.5346  -36.4060 C   0  0  0  0  0  0  0  0  0  0  0  0
  -18.7682  -24.0454  -38.5503 C   0  0  0  0  0  0  0  0  0  0  0  0
  -11.1824  -25.1213  -35.1725 C   0  0  0  0  0  0  0  0  0  0  0  0
  -16.2558  -24.6971  -39.5728 C   0  0  0  0  0  0  0  0  0  0  0  0
   -9.9676  -25.7427  -34.8831 C   0  0  0  0  0  0  0  0  0  0  0  0
   -5.2397  -29.6244  -33.9130 C   0  0  0  0  0  0  0  0  0  0  0  0
   -5.6431  -30.9515  -34.0657 C   0  0  0  0  0  0  0  0  0  0  0  0
  -12.0668  -25.7065  -36.0787 C   0  0  0  0  0  0  0  0  0  0  0  0
  -16.4075  -24.4319  -38.2119 C   0  0  0  0  0  0  0  0  0  0  0  0
   -9.6373  -26.9494  -35.4998 C   0  0  0  0  0  0  0  0  0  0  0  0
  -18.6166  -24.3107  -39.9113 C   0  0  0  0  0  0  0  0  0  0  0  0
  -17.3603  -24.6366  -40.4226 C   0  0  0  0  0  0  0  0  0  0  0  0
   -7.1723  -29.5323  -34.7986 C   0  0  0  0  0  0  0  0  0  0  0  0
   -7.7368  -31.9458  -34.9984 C   0  0  0  0  0  0  0  0  0  0  0  0
  -14.1811  -25.3537  -37.4293 C   0  0  0  0  0  0  0  0  0  0  0  0
   -9.0330  -25.1021  -33.9107 C   0  0  0  0  0  0  0  0  0  0  0  0
   -8.6675  -34.7069  -35.6503 C   0  0  0  0  0  0  0  0  0  0  0  0
   -7.1951  -35.2921  -33.7012 C   0  0  0  0  0  0  0  0  0  0  0  0
   -9.0832  -33.6639  -33.3977 C   0  0  0  0  0  0  0  0  0  0  0  0
   -8.4206  -28.9895  -35.3825 C   0  0  0  0  0  0  0  0  0  0  0  0
   -8.0238  -34.1933  -34.3632 C   0  0  0  0  0  0  0  0  0  0  0  0
   -6.1990  -28.7628  -34.3725 N   0  0  0  0  0  0  0  0  0  0  0  0
   -6.9049  -30.8779  -34.6439 N   0  0  0  0  0  0  0  0  0  0  0  0
  -13.2819  -25.0852  -36.3684 N   0  0  0  0  0  0  0  0  0  0  0  0
  -15.2873  -24.4926  -37.3497 N   0  0  0  0  0  0  0  0  0  0  0  0
   -8.8315  -31.7583  -35.5030 O   0  0  0  0  0  0  0  0  0  0  0  0
  -14.0116  -26.2137  -38.2878 O   0  0  0  0  0  0  0  0  0  0  0  0
   -8.4496  -27.5725  -35.2276 O   0  0  0  0  0  0  0  0  0  0  0  0
   -7.1341  -33.1231  -34.6947 O   0  0  0  0  0  0  0  0  0  0  0  0
  -20.0235  -24.2225  -40.9118 Cl  0  0  0  0  0  0  0  0  0  0  0  0
  -17.1092  -24.9777  -42.0988 Cl  0  0  0  0  0  0  0  0  0  0  0  0
   -2.1946  -30.1869  -32.5080 H   0  0  0  0  0  0  0  0  0  0  0  0
   -2.9294  -32.5253  -32.7888 H   0  0  0  0  0  0  0  0  0  0  0  0
   -3.6541  -28.3100  -33.2199 H   0  0  0  0  0  0  0  0  0  0  0  0
   -5.1280  -33.0558  -33.7805 H   0  0  0  0  0  0  0  0  0  0  0  0
  -12.4178  -27.3785  -37.4032 H   0  0  0  0  0  0  0  0  0  0  0  0
  -17.7927  -23.8961  -36.6420 H   0  0  0  0  0  0  0  0  0  0  0  0
  -10.2702  -28.4746  -36.8900 H   0  0  0  0  0  0  0  0  0  0  0  0
  -19.7395  -23.7884  -38.1349 H   0  0  0  0  0  0  0  0  0  0  0  0
  -11.4388  -24.1802  -34.6908 H   0  0  0  0  0  0  0  0  0  0  0  0
  -15.2735  -24.9520  -39.9656 H   0  0  0  0  0  0  0  0  0  0  0  0
   -9.5494  -24.8972  -32.9656 H   0  0  0  0  0  0  0  0  0  0  0  0
   -8.1707  -25.7484  -33.7046 H   0  0  0  0  0  0  0  0  0  0  0  0
   -8.6368  -24.1577  -34.3045 H   0  0  0  0  0  0  0  0  0  0  0  0
   -7.9064  -34.9130  -36.4112 H   0  0  0  0  0  0  0  0  0  0  0  0
   -9.2423  -35.6223  -35.4764 H   0  0  0  0  0  0  0  0  0  0  0  0
   -9.3379  -33.9535  -36.0798 H   0  0  0  0  0  0  0  0  0  0  0  0
   -7.8210  -36.1569  -33.4532 H   0  0  0  0  0  0  0  0  0  0  0  0
   -6.7652  -34.9409  -32.7561 H   0  0  0  0  0  0  0  0  0  0  0  0
   -6.3794  -35.6288  -34.3492 H   0  0  0  0  0  0  0  0  0  0  0  0
   -9.6033  -34.4888  -32.8972 H   0  0  0  0  0  0  0  0  0  0  0  0
   -8.6435  -33.0171  -32.6316 H   0  0  0  0  0  0  0  0  0  0  0  0
   -9.8508  -33.0952  -33.9350 H   0  0  0  0  0  0  0  0  0  0  0  0
   -8.5057  -29.2195  -36.4573 H   0  0  0  0  0  0  0  0  0  0  0  0
   -9.3149  -29.4092  -34.8933 H   0  0  0  0  0  0  0  0  0  0  0  0
  -13.5613  -24.3344  -35.7283 H   0  0  0  0  0  0  0  0  0  0  0  0
  -15.2897  -23.8279  -36.5802 H   0  0  0  0  0  0  0  0  0  0  0  0
  1  2  2  0  0  0  0
  1  3  1  0  0  0  0
  2  4  1  0  0  0  0
  3 12  2  0  0  0  0
  4 13  2  0  0  0  0
  5  7  2  0  0  0  0
  5 14  1  0  0  0  0
  6  8  1  0  0  0  0
  6 15  2  0  0  0  0
  7 16  1  0  0  0  0
  8 17  2  0  0  0  0
  9 11  1  0  0  0  0
  9 14  2  0  0  0  0
 10 15  1  0  0  0  0
 10 18  2  0  0  0  0
 11 16  2  0  0  0  0
 11 22  1  0  0  0  0
 12 13  1  0  0  0  0
 12 28  1  0  0  0  0
 13 29  1  0  0  0  0
 14 30  1  0  0  0  0
 15 31  1  0  0  0  0
 16 34  1  0  0  0  0
 17 18  1  0  0  0  0
 17 36  1  0  0  0  0
 18 37  1  0  0  0  0
 19 26  1  0  0  0  0
 19 28  2  0  0  0  0
 19 29  1  0  0  0  0
 20 29  1  0  0  0  0
 20 32  2  0  0  0  0
 20 35  1  0  0  0  0
 21 30  1  0  0  0  0
 21 31  1  0  0  0  0
 21 33  2  0  0  0  0
 23 27  1  0  0  0  0
 24 27  1  0  0  0  0
 25 27  1  0  0  0  0
 26 34  1  0  0  0  0
 27 35  1  0  0  0  0
  1 38  1  0  0  0  0
  2 39  1  0  0  0  0
  3 40  1  0  0  0  0
  4 41  1  0  0  0  0
  5 42  1  0  0  0  0
  6 43  1  0  0  0  0
  7 44  1  0  0  0  0
  8 45  1  0  0  0  0
  9 46  1  0  0  0  0
 10 47  1  0  0  0  0
 22 48  1  0  0  0  0
 22 49  1  0  0  0  0
 22 50  1  0  0  0  0
 23 51  1  0  0  0  0
 23 52  1  0  0  0  0
 23 53  1  0  0  0  0
 24 54  1  0  0  0  0
 24 55  1  0  0  0  0
 24 56  1  0  0  0  0
 25 57  1  0  0  0  0
 25 58  1  0  0  0  0
 25 59  1  0  0  0  0
 26 60  1  0  0  0  0
 26 61  1  0  0  0  0
 30 62  1  0  0  0  0
 31 63  1  0  0  0  0
M  END
> <Clean Energy>
84.5744

> <SourceTag>
Livi_174a

> <Activity_FLAP>
100

> <Activity_sEH>
0.7

> <Gold.Version>
5.2

> <Gold.Id.Protein>
6HGV|6HGV_protein|mol2

> <Gold.Goldscore.Fitness>
86.5820

> <Gold.Goldscore.Internal.Vdw>
-15.6215

> <Gold.Goldscore.Internal.Torsion>
-8.3140

> <Gold.Goldscore.External.Vdw>
61.4595

> <Gold.Goldscore.Internal.HBond>
0.0000

> <Gold.Goldscore.External.HBond>
5.0828

> <Gold.Goldscore.Internal.Correction>
-20.9279

> <Gold.Goldscore.Hbonds>
donor molecule, donor type, donor heavy atom, donor atom, acceptor molecule, acceptor atom, score
      L1  H    30    62       P1   853  0.67
      L1  H    31    63       P1   853  0.17

> <Gold.Goldscore.Internal.Vdw.Weighted>
-15.6215

> <Gold.Goldscore.Internal.Torsion.Weighted>
-8.3140

> <Gold.Goldscore.External.Vdw.Weighted>
84.5068

> <Gold.Goldscore.Internal.HBond.Weighted>
0.0000

> <Gold.Goldscore.External.HBond.Weighted>
5.0828

> <Gold.Goldscore.Internal.Correction.Weighted>
-20.9279

> <Gold.Protein.RotatedTorsions>
[ 3781 1176 1175 1172 ] final  108.97 input   60.00 | X-H torsion
[ 3847 1247 1246 1244 ] final  -76.95 input   60.00 | X-H torsion
[ 4507 1931 1930 1928 ] final  112.75 input   60.00 | X-H torsion
[ 3677 1070 1069 1066 ] final -133.79 input   60.00 | X-H torsion
[ 3525  925  924  922 ] final  -24.44 input   59.99 | X-H torsion
[ 4531 1957 1955 1953 ] final   -4.59 input   60.00 | X-H torsion

> <Gold.Protein.ActiveResidues>
 PHE267  PRO268  MET310  ASP335  TRP336  MET339  TYR343  THR360  PRO361  ILE363 
 PRO371  SER374  ILE375  ASN378  PHE381  TYR383  GLN384  PHE387  LEU408  LEU417 
 MET419  LEU428  TYR466  MET469  ASN472  ASP496  VAL498  LEU499  MET503  HIS524 
 TRP525 

> <Gold.Protein.RotatedAtoms>
   -3.7511  -29.5120  -30.1120 H   0  0  0  0  0  0  0  0  0  0  0  0  # atno 3525 bound_to 925 
  -11.3079  -23.4172  -31.4349 H   0  0  0  0  0  0  0  0  0  0  0  0  # atno 3677 bound_to 1070
   -9.9909  -37.1804  -32.3800 H   0  0  0  0  0  0  0  0  0  0  0  0  # atno 3781 bound_to 1176
  -15.9966  -27.6292  -37.3589 H   0  0  0  0  0  0  0  0  0  0  0  0  # atno 3847 bound_to 1247
  -12.4338  -23.9989  -39.2583 H   0  0  0  0  0  0  0  0  0  0  0  0  # atno 4507 bound_to 1931
   -2.8050  -32.4474  -36.6980 H   0  0  0  0  0  0  0  0  0  0  0  0  # atno 4531 bound_to 1957
  -10.7514  -37.1461  -33.8183 LP  0  0  0  0  0  0  0  0  0  0  0  0  # atno 5205 bound_to 1176
   -9.3688  -36.3045  -33.6023 LP  0  0  0  0  0  0  0  0  0  0  0  0  # atno 5206 bound_to 1176
  -14.4790  -27.6442  -37.9460 LP  0  0  0  0  0  0  0  0  0  0  0  0  # atno 5215 bound_to 1247
  -15.0831  -28.9669  -37.2029 LP  0  0  0  0  0  0  0  0  0  0  0  0  # atno 5216 bound_to 1247
  -13.3350  -25.3508  -39.1684 LP  0  0  0  0  0  0  0  0  0  0  0  0  # atno 5217 bound_to 1931
  -13.4305  -24.3885  -40.4842 LP  0  0  0  0  0  0  0  0  0  0  0  0  # atno 5218 bound_to 1931
  -11.7758  -22.1714  -30.4984 LP  0  0  0  0  0  0  0  0  0  0  0  0  # atno 5224 bound_to 1070
  -12.7748  -23.4420  -30.7309 LP  0  0  0  0  0  0  0  0  0  0  0  0  # atno 5225 bound_to 1070

$$$$
Livi_174a|Lisa_paper2_min|sdf|10|dock4
  -GOLD-  10182017 83D 1   1.00000     0.00000

 63 66  0  0  0  0  0  0  0  0  1 V2000
   -3.4645  -30.3504  -32.8753 C   0  0  0  0  0  0  0  0  0  0  0  0
   -4.0194  -31.6284  -32.8606 C   0  0  0  0  0  0  0  0  0  0  0  0
   -4.1596  -29.2767  -33.4395 C   0  0  0  0  0  0  0  0  0  0  0  0
   -5.2836  -31.8760  -33.4070 C   0  0  0  0  0  0  0  0  0  0  0  0
  -11.7766  -26.6134  -36.9747 C   0  0  0  0  0  0  0  0  0  0  0  0
  -17.8386  -24.0310  -37.8297 C   0  0  0  0  0  0  0  0  0  0  0  0
  -10.5619  -27.2268  -36.6683 C   0  0  0  0  0  0  0  0  0  0  0  0
  -18.9587  -24.0147  -38.6606 C   0  0  0  0  0  0  0  0  0  0  0  0
  -11.4391  -25.0437  -35.1694 C   0  0  0  0  0  0  0  0  0  0  0  0
  -16.4518  -24.6421  -39.7113 C   0  0  0  0  0  0  0  0  0  0  0  0
  -10.2244  -25.6571  -34.8630 C   0  0  0  0  0  0  0  0  0  0  0  0
   -5.4313  -29.5080  -33.9934 C   0  0  0  0  0  0  0  0  0  0  0  0
   -5.9740  -30.7934  -33.9710 C   0  0  0  0  0  0  0  0  0  0  0  0
  -12.2152  -25.5218  -36.2253 C   0  0  0  0  0  0  0  0  0  0  0  0
  -16.5850  -24.3447  -38.3551 C   0  0  0  0  0  0  0  0  0  0  0  0
   -9.7859  -26.7487  -35.6125 C   0  0  0  0  0  0  0  0  0  0  0  0
  -18.8256  -24.3121  -40.0169 C   0  0  0  0  0  0  0  0  0  0  0  0
  -17.5720  -24.6258  -40.5423 C   0  0  0  0  0  0  0  0  0  0  0  0
   -7.3325  -29.3383  -34.9338 C   0  0  0  0  0  0  0  0  0  0  0  0
   -8.1522  -31.6828  -34.8115 C   0  0  0  0  0  0  0  0  0  0  0  0
  -14.3521  -25.2362  -37.5561 C   0  0  0  0  0  0  0  0  0  0  0  0
   -9.4064  -25.1322  -33.7295 C   0  0  0  0  0  0  0  0  0  0  0  0
   -8.0222  -33.8469  -36.4971 C   0  0  0  0  0  0  0  0  0  0  0  0
   -7.3708  -35.2225  -34.4989 C   0  0  0  0  0  0  0  0  0  0  0  0
   -9.6607  -34.1978  -34.6191 C   0  0  0  0  0  0  0  0  0  0  0  0
   -8.5081  -28.7546  -35.6200 C   0  0  0  0  0  0  0  0  0  0  0  0
   -8.1878  -34.0289  -34.9891 C   0  0  0  0  0  0  0  0  0  0  0  0
   -6.2866  -28.6235  -34.5930 N   0  0  0  0  0  0  0  0  0  0  0  0
   -7.2138  -30.6693  -34.5868 N   0  0  0  0  0  0  0  0  0  0  0  0
  -13.4302  -24.9084  -36.5321 N   0  0  0  0  0  0  0  0  0  0  0  0
  -15.4489  -24.3606  -37.5120 N   0  0  0  0  0  0  0  0  0  0  0  0
   -9.2145  -31.4539  -35.3659 O   0  0  0  0  0  0  0  0  0  0  0  0
  -14.2070  -26.1518  -38.3596 O   0  0  0  0  0  0  0  0  0  0  0  0
   -8.5967  -27.3624  -35.3257 O   0  0  0  0  0  0  0  0  0  0  0  0
   -7.6838  -32.8626  -34.3316 O   0  0  0  0  0  0  0  0  0  0  0  0
  -20.2513  -24.2781  -40.9937 Cl  0  0  0  0  0  0  0  0  0  0  0  0
  -17.3434  -25.0051  -42.2135 Cl  0  0  0  0  0  0  0  0  0  0  0  0
   -2.4809  -30.1850  -32.4442 H   0  0  0  0  0  0  0  0  0  0  0  0
   -3.4609  -32.4490  -32.4171 H   0  0  0  0  0  0  0  0  0  0  0  0
   -3.7208  -28.2838  -33.4478 H   0  0  0  0  0  0  0  0  0  0  0  0
   -5.6926  -32.8791  -33.3831 H   0  0  0  0  0  0  0  0  0  0  0  0
  -12.3731  -26.9946  -37.7997 H   0  0  0  0  0  0  0  0  0  0  0  0
  -17.9532  -23.7963  -36.7746 H   0  0  0  0  0  0  0  0  0  0  0  0
  -10.2260  -28.0768  -37.2562 H   0  0  0  0  0  0  0  0  0  0  0  0
  -19.9277  -23.7666  -38.2344 H   0  0  0  0  0  0  0  0  0  0  0  0
  -11.7798  -24.1924  -34.5841 H   0  0  0  0  0  0  0  0  0  0  0  0
  -15.4715  -24.8873  -40.1151 H   0  0  0  0  0  0  0  0  0  0  0  0
   -8.3685  -24.9802  -34.0481 H   0  0  0  0  0  0  0  0  0  0  0  0
   -9.8028  -24.1770  -33.3633 H   0  0  0  0  0  0  0  0  0  0  0  0
   -9.4132  -25.8270  -32.8803 H   0  0  0  0  0  0  0  0  0  0  0  0
   -7.0737  -33.3489  -36.7276 H   0  0  0  0  0  0  0  0  0  0  0  0
   -8.0486  -34.8060  -37.0245 H   0  0  0  0  0  0  0  0  0  0  0  0
   -8.8140  -33.2068  -36.9030 H   0  0  0  0  0  0  0  0  0  0  0  0
   -7.7341  -36.1544  -34.9471 H   0  0  0  0  0  0  0  0  0  0  0  0
   -7.4685  -35.3431  -33.4139 H   0  0  0  0  0  0  0  0  0  0  0  0
   -6.3089  -35.1121  -34.7412 H   0  0  0  0  0  0  0  0  0  0  0  0
  -10.0567  -35.1417  -35.0109 H   0  0  0  0  0  0  0  0  0  0  0  0
   -9.8080  -34.1850  -33.5343 H   0  0  0  0  0  0  0  0  0  0  0  0
  -10.2678  -33.4002  -35.0624 H   0  0  0  0  0  0  0  0  0  0  0  0
   -8.4451  -28.8711  -36.7144 H   0  0  0  0  0  0  0  0  0  0  0  0
   -9.4468  -29.2360  -35.3000 H   0  0  0  0  0  0  0  0  0  0  0  0
  -13.6903  -24.1147  -35.9371 H   0  0  0  0  0  0  0  0  0  0  0  0
  -15.4304  -23.6472  -36.7876 H   0  0  0  0  0  0  0  0  0  0  0  0
  1  2  2  0  0  0  0
  1  3  1  0  0  0  0
  2  4  1  0  0  0  0
  3 12  2  0  0  0  0
  4 13  2  0  0  0  0
  5  7  2  0  0  0  0
  5 14  1  0  0  0  0
  6  8  1  0  0  0  0
  6 15  2  0  0  0  0
  7 16  1  0  0  0  0
  8 17  2  0  0  0  0
  9 11  1  0  0  0  0
  9 14  2  0  0  0  0
 10 15  1  0  0  0  0
 10 18  2  0  0  0  0
 11 16  2  0  0  0  0
 11 22  1  0  0  0  0
 12 13  1  0  0  0  0
 12 28  1  0  0  0  0
 13 29  1  0  0  0  0
 14 30  1  0  0  0  0
 15 31  1  0  0  0  0
 16 34  1  0  0  0  0
 17 18  1  0  0  0  0
 17 36  1  0  0  0  0
 18 37  1  0  0  0  0
 19 26  1  0  0  0  0
 19 28  2  0  0  0  0
 19 29  1  0  0  0  0
 20 29  1  0  0  0  0
 20 32  2  0  0  0  0
 20 35  1  0  0  0  0
 21 30  1  0  0  0  0
 21 31  1  0  0  0  0
 21 33  2  0  0  0  0
 23 27  1  0  0  0  0
 24 27  1  0  0  0  0
 25 27  1  0  0  0  0
 26 34  1  0  0  0  0
 27 35  1  0  0  0  0
  1 38  1  0  0  0  0
  2 39  1  0  0  0  0
  3 40  1  0  0  0  0
  4 41  1  0  0  0  0
  5 42  1  0  0  0  0
  6 43  1  0  0  0  0
  7 44  1  0  0  0  0
  8 45  1  0  0  0  0
  9 46  1  0  0  0  0
 10 47  1  0  0  0  0
 22 48  1  0  0  0  0
 22 49  1  0  0  0  0
 22 50  1  0  0  0  0
 23 51  1  0  0  0  0
 23 52  1  0  0  0  0
 23 53  1  0  0  0  0
 24 54  1  0  0  0  0
 24 55  1  0  0  0  0
 24 56  1  0  0  0  0
 25 57  1  0  0  0  0
 25 58  1  0  0  0  0
 25 59  1  0  0  0  0
 26 60  1  0  0  0  0
 26 61  1  0  0  0  0
 30 62  1  0  0  0  0
 31 63  1  0  0  0  0
M  END
> <Clean Energy>
84.5744

> <SourceTag>
Livi_174a

> <Activity_FLAP>
100

> <Activity_sEH>
0.7

> <Gold.Version>
5.2

> <Gold.Id.Protein>
6HGV|6HGV_protein|mol2

> <Gold.Goldscore.Fitness>
86.3379

> <Gold.Goldscore.Internal.Vdw>
-16.9465

> <Gold.Goldscore.Internal.Torsion>
-7.9912

> <Gold.Goldscore.External.Vdw>
62.9662

> <Gold.Goldscore.Internal.HBond>
0.0000

> <Gold.Goldscore.External.HBond>
5.6067

> <Gold.Goldscore.Internal.Correction>
-19.0905

> <Gold.Goldscore.Hbonds>
donor molecule, donor type, donor heavy atom, donor atom, acceptor molecule, acceptor atom, score
      P1  H  1247  3847       L1    33  0.01
      L1  H    30    62       P1   853  0.85
      L1  H    31    63       P1   853  0.08

> <Gold.Goldscore.Internal.Vdw.Weighted>
-16.9465

> <Gold.Goldscore.Internal.Torsion.Weighted>
-7.9912

> <Gold.Goldscore.External.Vdw.Weighted>
86.5785

> <Gold.Goldscore.Internal.HBond.Weighted>
0.0000

> <Gold.Goldscore.External.HBond.Weighted>
5.6067

> <Gold.Goldscore.Internal.Correction.Weighted>
-19.0905

> <Gold.Protein.RotatedTorsions>
[ 3781 1176 1175 1172 ] final   25.63 input   60.00 | X-H torsion
[ 3847 1247 1246 1244 ] final  154.51 input   60.00 | X-H torsion
[ 4507 1931 1930 1928 ] final  116.37 input   60.00 | X-H torsion
[ 3677 1070 1069 1066 ] final -132.15 input   60.00 | X-H torsion
[ 3525  925  924  922 ] final  -27.31 input   59.99 | X-H torsion
[ 4531 1957 1955 1953 ] final    2.28 input   60.00 | X-H torsion

> <Gold.Protein.ActiveResidues>
 PHE267  PRO268  MET310  ASP335  TRP336  MET339  TYR343  THR360  PRO361  ILE363 
 PRO371  SER374  ILE375  ASN378  PHE381  TYR383  GLN384  PHE387  LEU408  LEU417 
 MET419  LEU428  TYR466  MET469  ASN472  ASP496  VAL498  LEU499  MET503  HIS524 
 TRP525 

> <Gold.Protein.RotatedAtoms>
   -3.7596  -29.5126  -30.0659 H   0  0  0  0  0  0  0  0  0  0  0  0  # atno 3525 bound_to 925 
  -11.3245  -23.4378  -31.4385 H   0  0  0  0  0  0  0  0  0  0  0  0  # atno 3677 bound_to 1070
  -10.8182  -37.3931  -33.2857 H   0  0  0  0  0  0  0  0  0  0  0  0  # atno 3781 bound_to 1176
  -14.4144  -27.7670  -37.9271 H   0  0  0  0  0  0  0  0  0  0  0  0  # atno 3847 bound_to 1247
  -12.4385  -23.9652  -39.3067 H   0  0  0  0  0  0  0  0  0  0  0  0  # atno 4507 bound_to 1931
   -2.8811  -32.5288  -36.6849 H   0  0  0  0  0  0  0  0  0  0  0  0  # atno 4531 bound_to 1957
   -9.7628  -36.4058  -34.0336 LP  0  0  0  0  0  0  0  0  0  0  0  0  # atno 5205 bound_to 1176
   -9.5243  -36.8305  -32.4749 LP  0  0  0  0  0  0  0  0  0  0  0  0  # atno 5206 bound_to 1176
  -15.2148  -28.9554  -37.1557 LP  0  0  0  0  0  0  0  0  0  0  0  0  # atno 5215 bound_to 1247
  -15.9407  -27.5169  -37.4211 LP  0  0  0  0  0  0  0  0  0  0  0  0  # atno 5216 bound_to 1247
  -13.2980  -25.3349  -39.1245 LP  0  0  0  0  0  0  0  0  0  0  0  0  # atno 5217 bound_to 1931
  -13.4627  -24.4383  -40.4794 LP  0  0  0  0  0  0  0  0  0  0  0  0  # atno 5218 bound_to 1931
  -11.7517  -22.1713  -30.5102 LP  0  0  0  0  0  0  0  0  0  0  0  0  # atno 5224 bound_to 1070
  -12.7822  -23.4214  -30.7154 LP  0  0  0  0  0  0  0  0  0  0  0  0  # atno 5225 bound_to 1070

$$$$
Livi_174a|Lisa_paper2_min|sdf|10|dock6
  -GOLD-  10182017 93D 1   1.00000     0.00000

 63 66  0  0  0  0  0  0  0  0  1 V2000
   -3.1633  -30.1519  -33.0259 C   0  0  0  0  0  0  0  0  0  0  0  0
   -3.5574  -31.4787  -33.1854 C   0  0  0  0  0  0  0  0  0  0  0  0
   -4.0011  -29.1056  -33.4229 C   0  0  0  0  0  0  0  0  0  0  0  0
   -4.7981  -31.8041  -33.7447 C   0  0  0  0  0  0  0  0  0  0  0  0
  -11.8008  -26.7932  -36.7475 C   0  0  0  0  0  0  0  0  0  0  0  0
  -17.8410  -24.2077  -37.6570 C   0  0  0  0  0  0  0  0  0  0  0  0
  -10.5665  -27.3821  -36.4733 C   0  0  0  0  0  0  0  0  0  0  0  0
  -18.9374  -24.1463  -38.5170 C   0  0  0  0  0  0  0  0  0  0  0  0
  -11.3701  -25.1094  -35.0693 C   0  0  0  0  0  0  0  0  0  0  0  0
  -16.3853  -24.6138  -39.5419 C   0  0  0  0  0  0  0  0  0  0  0  0
  -10.1357  -25.6983  -34.7951 C   0  0  0  0  0  0  0  0  0  0  0  0
   -5.2515  -29.4148  -33.9872 C   0  0  0  0  0  0  0  0  0  0  0  0
   -5.6324  -30.7485  -34.1403 C   0  0  0  0  0  0  0  0  0  0  0  0
  -12.2027  -25.6568  -36.0455 C   0  0  0  0  0  0  0  0  0  0  0  0
  -16.5648  -24.4414  -38.1695 C   0  0  0  0  0  0  0  0  0  0  0  0
   -9.7340  -26.8347  -35.4971 C   0  0  0  0  0  0  0  0  0  0  0  0
  -18.7579  -24.3188  -39.8894 C   0  0  0  0  0  0  0  0  0  0  0  0
  -17.4817  -24.5525  -40.4019 C   0  0  0  0  0  0  0  0  0  0  0  0
   -7.1871  -29.3551  -34.8690 C   0  0  0  0  0  0  0  0  0  0  0  0
   -7.7106  -31.7777  -35.0699 C   0  0  0  0  0  0  0  0  0  0  0  0
  -14.3137  -25.3168  -37.4044 C   0  0  0  0  0  0  0  0  0  0  0  0
   -9.2572  -25.0990  -33.7470 C   0  0  0  0  0  0  0  0  0  0  0  0
   -8.5980  -34.4656  -35.8535 C   0  0  0  0  0  0  0  0  0  0  0  0
   -7.1089  -35.1920  -33.9655 C   0  0  0  0  0  0  0  0  0  0  0  0
   -9.0224  -33.6278  -33.5184 C   0  0  0  0  0  0  0  0  0  0  0  0
   -8.4456  -28.8332  -35.4499 C   0  0  0  0  0  0  0  0  0  0  0  0
   -7.9580  -34.0542  -34.5283 C   0  0  0  0  0  0  0  0  0  0  0  0
   -6.2262  -28.5694  -34.4440 N   0  0  0  0  0  0  0  0  0  0  0  0
   -6.8964  -30.6960  -34.7159 N   0  0  0  0  0  0  0  0  0  0  0  0
  -13.4373  -25.0679  -36.3200 N   0  0  0  0  0  0  0  0  0  0  0  0
  -15.4528  -24.5029  -37.2968 N   0  0  0  0  0  0  0  0  0  0  0  0
   -8.8094  -31.6085  -35.5722 O   0  0  0  0  0  0  0  0  0  0  0  0
  -14.1020  -26.1259  -38.3020 O   0  0  0  0  0  0  0  0  0  0  0  0
   -8.5262  -27.4251  -35.2410 O   0  0  0  0  0  0  0  0  0  0  0  0
   -7.0873  -32.9448  -34.7684 O   0  0  0  0  0  0  0  0  0  0  0  0
  -20.1561  -24.2347  -40.9025 Cl  0  0  0  0  0  0  0  0  0  0  0  0
  -17.1957  -24.7761  -42.0922 Cl  0  0  0  0  0  0  0  0  0  0  0  0
   -2.1945  -29.9263  -32.5886 H   0  0  0  0  0  0  0  0  0  0  0  0
   -2.8897  -32.2767  -32.8702 H   0  0  0  0  0  0  0  0  0  0  0  0
   -3.6872  -28.0741  -33.2959 H   0  0  0  0  0  0  0  0  0  0  0  0
   -5.0809  -32.8440  -33.8580 H   0  0  0  0  0  0  0  0  0  0  0  0
  -12.4415  -27.2285  -37.5103 H   0  0  0  0  0  0  0  0  0  0  0  0
  -17.9918  -24.0705  -36.5893 H   0  0  0  0  0  0  0  0  0  0  0  0
  -10.2595  -28.2672  -37.0239 H   0  0  0  0  0  0  0  0  0  0  0  0
  -19.9245  -23.9619  -38.1003 H   0  0  0  0  0  0  0  0  0  0  0  0
  -11.6821  -24.2231  -34.5210 H   0  0  0  0  0  0  0  0  0  0  0  0
  -15.3875  -24.7971  -39.9356 H   0  0  0  0  0  0  0  0  0  0  0  0
   -8.3105  -24.7668  -34.1889 H   0  0  0  0  0  0  0  0  0  0  0  0
   -9.7407  -24.2380  -33.2689 H   0  0  0  0  0  0  0  0  0  0  0  0
   -9.0370  -25.8230  -32.9525 H   0  0  0  0  0  0  0  0  0  0  0  0
   -9.3581  -33.7388  -36.1613 H   0  0  0  0  0  0  0  0  0  0  0  0
   -7.8537  -34.5497  -36.6520 H   0  0  0  0  0  0  0  0  0  0  0  0
   -9.1124  -35.4287  -35.7569 H   0  0  0  0  0  0  0  0  0  0  0  0
   -6.2726  -35.4229  -34.6351 H   0  0  0  0  0  0  0  0  0  0  0  0
   -7.6978  -36.1122  -33.8784 H   0  0  0  0  0  0  0  0  0  0  0  0
   -6.7047  -34.9444  -32.9786 H   0  0  0  0  0  0  0  0  0  0  0  0
   -9.5773  -34.4960  -33.1449 H   0  0  0  0  0  0  0  0  0  0  0  0
   -8.5807  -33.1060  -32.6632 H   0  0  0  0  0  0  0  0  0  0  0  0
   -9.7609  -32.9667  -33.9862 H   0  0  0  0  0  0  0  0  0  0  0  0
   -8.5081  -29.0238  -36.5339 H   0  0  0  0  0  0  0  0  0  0  0  0
   -9.3312  -29.3022  -34.9906 H   0  0  0  0  0  0  0  0  0  0  0  0
  -13.7523  -24.3609  -35.6472 H   0  0  0  0  0  0  0  0  0  0  0  0
  -15.4892  -23.8779  -36.4955 H   0  0  0  0  0  0  0  0  0  0  0  0
  1  2  2  0  0  0  0
  1  3  1  0  0  0  0
  2  4  1  0  0  0  0
  3 12  2  0  0  0  0
  4 13  2  0  0  0  0
  5  7  2  0  0  0  0
  5 14  1  0  0  0  0
  6  8  1  0  0  0  0
  6 15  2  0  0  0  0
  7 16  1  0  0  0  0
  8 17  2  0  0  0  0
  9 11  1  0  0  0  0
  9 14  2  0  0  0  0
 10 15  1  0  0  0  0
 10 18  2  0  0  0  0
 11 16  2  0  0  0  0
 11 22  1  0  0  0  0
 12 13  1  0  0  0  0
 12 28  1  0  0  0  0
 13 29  1  0  0  0  0
 14 30  1  0  0  0  0
 15 31  1  0  0  0  0
 16 34  1  0  0  0  0
 17 18  1  0  0  0  0
 17 36  1  0  0  0  0
 18 37  1  0  0  0  0
 19 26  1  0  0  0  0
 19 28  2  0  0  0  0
 19 29  1  0  0  0  0
 20 29  1  0  0  0  0
 20 32  2  0  0  0  0
 20 35  1  0  0  0  0
 21 30  1  0  0  0  0
 21 31  1  0  0  0  0
 21 33  2  0  0  0  0
 23 27  1  0  0  0  0
 24 27  1  0  0  0  0
 25 27  1  0  0  0  0
 26 34  1  0  0  0  0
 27 35  1  0  0  0  0
  1 38  1  0  0  0  0
  2 39  1  0  0  0  0
  3 40  1  0  0  0  0
  4 41  1  0  0  0  0
  5 42  1  0  0  0  0
  6 43  1  0  0  0  0
  7 44  1  0  0  0  0
  8 45  1  0  0  0  0
  9 46  1  0  0  0  0
 10 47  1  0  0  0  0
 22 48  1  0  0  0  0
 22 49  1  0  0  0  0
 22 50  1  0  0  0  0
 23 51  1  0  0  0  0
 23 52  1  0  0  0  0
 23 53  1  0  0  0  0
 24 54  1  0  0  0  0
 24 55  1  0  0  0  0
 24 56  1  0  0  0  0
 25 57  1  0  0  0  0
 25 58  1  0  0  0  0
 25 59  1  0  0  0  0
 26 60  1  0  0  0  0
 26 61  1  0  0  0  0
 30 62  1  0  0  0  0
 31 63  1  0  0  0  0
M  END
> <Clean Energy>
84.5744

> <SourceTag>
Livi_174a

> <Activity_FLAP>
100

> <Activity_sEH>
0.7

> <Gold.Version>
5.2

> <Gold.Id.Protein>
6HGV|6HGV_protein|mol2

> <Gold.Goldscore.Fitness>
83.5265

> <Gold.Goldscore.Internal.Vdw>
-15.8562

> <Gold.Goldscore.Internal.Torsion>
-7.4269

> <Gold.Goldscore.External.Vdw>
62.9239

> <Gold.Goldscore.Internal.HBond>
0.0000

> <Gold.Goldscore.External.HBond>
3.1554

> <Gold.Goldscore.Internal.Correction>
-17.1340

> <Gold.Goldscore.Hbonds>
donor molecule, donor type, donor heavy atom, donor atom, acceptor molecule, acceptor atom, score
      L1  H    30    62       P1   853  0.46
      L1  H    31    63       P1   853  0.06

> <Gold.Goldscore.Internal.Vdw.Weighted>
-15.8562

> <Gold.Goldscore.Internal.Torsion.Weighted>
-7.4269

> <Gold.Goldscore.External.Vdw.Weighted>
86.5203

> <Gold.Goldscore.Internal.HBond.Weighted>
0.0000

> <Gold.Goldscore.External.HBond.Weighted>
3.1554

> <Gold.Goldscore.Internal.Correction.Weighted>
-17.1340

> <Gold.Protein.RotatedTorsions>
[ 3781 1176 1175 1172 ] final   70.08 input   60.00 | X-H torsion
[ 3847 1247 1246 1244 ] final  -62.13 input   60.00 | X-H torsion
[ 4507 1931 1930 1928 ] final  125.75 input   60.00 | X-H torsion
[ 3677 1070 1069 1066 ] final -144.00 input   60.00 | X-H torsion
[ 3525  925  924  922 ] final  -20.20 input   59.99 | X-H torsion
[ 4531 1957 1955 1953 ] final  -17.59 input   60.00 | X-H torsion

> <Gold.Protein.ActiveResidues>
 PHE267  PRO268  MET310  ASP335  TRP336  MET339  TYR343  THR360  PRO361  ILE363 
 PRO371  SER374  ILE375  ASN378  PHE381  TYR383  GLN384  PHE387  LEU408  LEU417 
 MET419  LEU428  TYR466  MET469  ASN472  ASP496  VAL498  LEU499  MET503  HIS524 
 TRP525 

> <Gold.Protein.RotatedAtoms>
   -3.7347  -29.5130  -30.1793 H   0  0  0  0  0  0  0  0  0  0  0  0  # atno 3525 bound_to 925 
  -11.2165  -23.2816  -31.4026 H   0  0  0  0  0  0  0  0  0  0  0  0  # atno 3677 bound_to 1070
  -10.4986  -37.4165  -32.6541 H   0  0  0  0  0  0  0  0  0  0  0  0  # atno 3781 bound_to 1176
  -16.0583  -27.8382  -37.2547 H   0  0  0  0  0  0  0  0  0  0  0  0  # atno 3847 bound_to 1247
  -12.4623  -23.8896  -39.4377 H   0  0  0  0  0  0  0  0  0  0  0  0  # atno 4507 bound_to 1931
   -2.6373  -32.3211  -36.7277 H   0  0  0  0  0  0  0  0  0  0  0  0  # atno 4531 bound_to 1957
  -10.3672  -36.7688  -34.1411 LP  0  0  0  0  0  0  0  0  0  0  0  0  # atno 5205 bound_to 1176
   -9.2416  -36.4439  -33.0035 LP  0  0  0  0  0  0  0  0  0  0  0  0  # atno 5206 bound_to 1176
  -14.6382  -27.4605  -37.9538 LP  0  0  0  0  0  0  0  0  0  0  0  0  # atno 5215 bound_to 1247
  -14.8618  -28.9401  -37.3001 LP  0  0  0  0  0  0  0  0  0  0  0  0  # atno 5216 bound_to 1247
  -13.1983  -25.2797  -39.0207 LP  0  0  0  0  0  0  0  0  0  0  0  0  # atno 5217 bound_to 1931
  -13.5385  -24.5696  -40.4513 LP  0  0  0  0  0  0  0  0  0  0  0  0  # atno 5218 bound_to 1931
  -11.9292  -22.1871  -30.4319 LP  0  0  0  0  0  0  0  0  0  0  0  0  # atno 5224 bound_to 1070
  -12.7135  -23.5629  -30.8299 LP  0  0  0  0  0  0  0  0  0  0  0  0  # atno 5225 bound_to 1070

$$$$
Livi_174a|Lisa_paper2_min|sdf|10|dock7
  -GOLD-  10182017 93D 1   1.00000     0.00000

 63 66  0  0  0  0  0  0  0  0  1 V2000
   -3.5181  -30.2788  -32.9770 C   0  0  0  0  0  0  0  0  0  0  0  0
   -4.0751  -31.5559  -32.9828 C   0  0  0  0  0  0  0  0  0  0  0  0
   -4.2110  -29.1952  -33.5247 C   0  0  0  0  0  0  0  0  0  0  0  0
   -5.3393  -31.7928  -33.5339 C   0  0  0  0  0  0  0  0  0  0  0  0
  -11.8853  -26.5104  -36.9352 C   0  0  0  0  0  0  0  0  0  0  0  0
  -16.6136  -24.4981  -39.5636 C   0  0  0  0  0  0  0  0  0  0  0  0
  -10.6536  -27.1055  -36.6624 C   0  0  0  0  0  0  0  0  0  0  0  0
  -17.7343  -24.4689  -40.3935 C   0  0  0  0  0  0  0  0  0  0  0  0
  -11.5928  -25.0374  -35.0427 C   0  0  0  0  0  0  0  0  0  0  0  0
  -18.0235  -24.0865  -37.6453 C   0  0  0  0  0  0  0  0  0  0  0  0
  -10.3610  -25.6325  -34.7699 C   0  0  0  0  0  0  0  0  0  0  0  0
   -5.4827  -29.4156  -34.0830 C   0  0  0  0  0  0  0  0  0  0  0  0
   -6.0276  -30.7003  -34.0813 C   0  0  0  0  0  0  0  0  0  0  0  0
  -12.3549  -25.4763  -36.1253 C   0  0  0  0  0  0  0  0  0  0  0  0
  -16.7582  -24.3069  -38.1894 C   0  0  0  0  0  0  0  0  0  0  0  0
   -9.8916  -26.6666  -35.5798 C   0  0  0  0  0  0  0  0  0  0  0  0
  -18.9996  -24.2484  -39.8494 C   0  0  0  0  0  0  0  0  0  0  0  0
  -19.1442  -24.0572  -38.4752 C   0  0  0  0  0  0  0  0  0  0  0  0
   -7.3829  -29.2279  -35.0220 C   0  0  0  0  0  0  0  0  0  0  0  0
   -8.2066  -31.5726  -34.9373 C   0  0  0  0  0  0  0  0  0  0  0  0
  -14.5004  -25.1780  -37.4395 C   0  0  0  0  0  0  0  0  0  0  0  0
   -9.5584  -25.1500  -33.6069 C   0  0  0  0  0  0  0  0  0  0  0  0
   -7.8575  -33.7377  -36.6675 C   0  0  0  0  0  0  0  0  0  0  0  0
   -7.4819  -35.1292  -34.6103 C   0  0  0  0  0  0  0  0  0  0  0  0
   -9.7108  -34.0359  -34.9910 C   0  0  0  0  0  0  0  0  0  0  0  0
   -8.5570  -28.6315  -35.6997 C   0  0  0  0  0  0  0  0  0  0  0  0
   -8.2007  -33.9122  -35.1889 C   0  0  0  0  0  0  0  0  0  0  0  0
   -6.3360  -28.5203  -34.6693 N   0  0  0  0  0  0  0  0  0  0  0  0
   -7.2667  -30.5644  -34.6959 N   0  0  0  0  0  0  0  0  0  0  0  0
  -13.5869  -24.8813  -36.3985 N   0  0  0  0  0  0  0  0  0  0  0  0
  -15.6212  -24.3373  -37.3479 N   0  0  0  0  0  0  0  0  0  0  0  0
   -9.2681  -31.3332  -35.4887 O   0  0  0  0  0  0  0  0  0  0  0  0
  -14.3305  -26.0436  -38.2921 O   0  0  0  0  0  0  0  0  0  0  0  0
   -8.6853  -27.2614  -35.3266 O   0  0  0  0  0  0  0  0  0  0  0  0
   -7.7405  -32.7606  -34.4757 O   0  0  0  0  0  0  0  0  0  0  0  0
  -20.3484  -24.2204  -40.9302 Cl  0  0  0  0  0  0  0  0  0  0  0  0
  -20.6848  -23.7776  -37.7422 Cl  0  0  0  0  0  0  0  0  0  0  0  0
   -2.5345  -30.1219  -32.5427 H   0  0  0  0  0  0  0  0  0  0  0  0
   -3.5183  -32.3844  -32.5519 H   0  0  0  0  0  0  0  0  0  0  0  0
   -3.7706  -28.2030  -33.5170 H   0  0  0  0  0  0  0  0  0  0  0  0
   -5.7501  -32.7955  -33.5261 H   0  0  0  0  0  0  0  0  0  0  0  0
  -12.4708  -26.8607  -37.7816 H   0  0  0  0  0  0  0  0  0  0  0  0
  -15.6324  -24.6721  -39.9977 H   0  0  0  0  0  0  0  0  0  0  0  0
  -10.2936  -27.9106  -37.2974 H   0  0  0  0  0  0  0  0  0  0  0  0
  -17.6031  -24.6212  -41.4620 H   0  0  0  0  0  0  0  0  0  0  0  0
  -11.9576  -24.2310  -34.4102 H   0  0  0  0  0  0  0  0  0  0  0  0
  -18.1298  -23.9368  -36.5727 H   0  0  0  0  0  0  0  0  0  0  0  0
   -9.6657  -25.8374  -32.7596 H   0  0  0  0  0  0  0  0  0  0  0  0
   -8.4943  -25.0749  -33.8632 H   0  0  0  0  0  0  0  0  0  0  0  0
   -9.8813  -24.1507  -33.2893 H   0  0  0  0  0  0  0  0  0  0  0  0
   -7.9355  -34.6917  -37.2009 H   0  0  0  0  0  0  0  0  0  0  0  0
   -8.5195  -33.0129  -37.1525 H   0  0  0  0  0  0  0  0  0  0  0  0
   -6.8226  -33.3981  -36.7913 H   0  0  0  0  0  0  0  0  0  0  0  0
   -7.8172  -36.0501  -35.1009 H   0  0  0  0  0  0  0  0  0  0  0  0
   -7.7093  -35.2466  -33.5446 H   0  0  0  0  0  0  0  0  0  0  0  0
   -6.3961  -35.0501  -34.7265 H   0  0  0  0  0  0  0  0  0  0  0  0
  -10.0480  -35.0605  -35.1853 H   0  0  0  0  0  0  0  0  0  0  0  0
  -10.0079  -33.7614  -33.9736 H   0  0  0  0  0  0  0  0  0  0  0  0
  -10.2502  -33.3938  -35.6966 H   0  0  0  0  0  0  0  0  0  0  0  0
   -8.4676  -28.6817  -36.7974 H   0  0  0  0  0  0  0  0  0  0  0  0
   -9.4906  -29.1521  -35.4302 H   0  0  0  0  0  0  0  0  0  0  0  0
  -13.8686  -24.1292  -35.7609 H   0  0  0  0  0  0  0  0  0  0  0  0
  -15.6220  -23.6646  -36.5853 H   0  0  0  0  0  0  0  0  0  0  0  0
  1  2  2  0  0  0  0
  1  3  1  0  0  0  0
  2  4  1  0  0  0  0
  3 12  2  0  0  0  0
  4 13  2  0  0  0  0
  5  7  2  0  0  0  0
  5 14  1  0  0  0  0
  6  8  1  0  0  0  0
  6 15  2  0  0  0  0
  7 16  1  0  0  0  0
  8 17  2  0  0  0  0
  9 11  1  0  0  0  0
  9 14  2  0  0  0  0
 10 15  1  0  0  0  0
 10 18  2  0  0  0  0
 11 16  2  0  0  0  0
 11 22  1  0  0  0  0
 12 13  1  0  0  0  0
 12 28  1  0  0  0  0
 13 29  1  0  0  0  0
 14 30  1  0  0  0  0
 15 31  1  0  0  0  0
 16 34  1  0  0  0  0
 17 18  1  0  0  0  0
 17 36  1  0  0  0  0
 18 37  1  0  0  0  0
 19 26  1  0  0  0  0
 19 28  2  0  0  0  0
 19 29  1  0  0  0  0
 20 29  1  0  0  0  0
 20 32  2  0  0  0  0
 20 35  1  0  0  0  0
 21 30  1  0  0  0  0
 21 31  1  0  0  0  0
 21 33  2  0  0  0  0
 23 27  1  0  0  0  0
 24 27  1  0  0  0  0
 25 27  1  0  0  0  0
 26 34  1  0  0  0  0
 27 35  1  0  0  0  0
  1 38  1  0  0  0  0
  2 39  1  0  0  0  0
  3 40  1  0  0  0  0
  4 41  1  0  0  0  0
  5 42  1  0  0  0  0
  6 43  1  0  0  0  0
  7 44  1  0  0  0  0
  8 45  1  0  0  0  0
  9 46  1  0  0  0  0
 10 47  1  0  0  0  0
 22 48  1  0  0  0  0
 22 49  1  0  0  0  0
 22 50  1  0  0  0  0
 23 51  1  0  0  0  0
 23 52  1  0  0  0  0
 23 53  1  0  0  0  0
 24 54  1  0  0  0  0
 24 55  1  0  0  0  0
 24 56  1  0  0  0  0
 25 57  1  0  0  0  0
 25 58  1  0  0  0  0
 25 59  1  0  0  0  0
 26 60  1  0  0  0  0
 26 61  1  0  0  0  0
 30 62  1  0  0  0  0
 31 63  1  0  0  0  0
M  END
> <Clean Energy>
84.5744

> <SourceTag>
Livi_174a

> <Activity_FLAP>
100

> <Activity_sEH>
0.7

> <Gold.Version>
5.2

> <Gold.Id.Protein>
6HGV|6HGV_protein|mol2

> <Gold.Goldscore.Fitness>
82.9354

> <Gold.Goldscore.Internal.Vdw>
-16.1483

> <Gold.Goldscore.Internal.Torsion>
-8.8770

> <Gold.Goldscore.External.Vdw>
63.4385

> <Gold.Goldscore.Internal.HBond>
0.0000

> <Gold.Goldscore.External.HBond>
3.5989

> <Gold.Goldscore.Internal.Correction>
-17.1340

> <Gold.Goldscore.Hbonds>
donor molecule, donor type, donor heavy atom, donor atom, acceptor molecule, acceptor atom, score
      L1  H    30    62       P1   853  0.57
      L1  H    31    63       P1   853  0.03

> <Gold.Goldscore.Internal.Vdw.Weighted>
-16.1483

> <Gold.Goldscore.Internal.Torsion.Weighted>
-8.8770

> <Gold.Goldscore.External.Vdw.Weighted>
87.2279

> <Gold.Goldscore.Internal.HBond.Weighted>
0.0000

> <Gold.Goldscore.External.HBond.Weighted>
3.5989

> <Gold.Goldscore.Internal.Correction.Weighted>
-17.1340

> <Gold.Protein.RotatedTorsions>
[ 3781 1176 1175 1172 ] final   -2.08 input   60.00 | X-H torsion
[ 3847 1247 1246 1244 ] final  -74.99 input   60.00 | X-H torsion
[ 4507 1931 1930 1928 ] final  106.14 input   60.00 | X-H torsion
[ 3677 1070 1069 1066 ] final -104.80 input   60.00 | X-H torsion
[ 3525  925  924  922 ] final  -20.59 input   59.99 | X-H torsion
[ 4531 1957 1955 1953 ] final    1.75 input   60.00 | X-H torsion

> <Gold.Protein.ActiveResidues>
 PHE267  PRO268  MET310  ASP335  TRP336  MET339  TYR343  THR360  PRO361  ILE363 
 PRO371  SER374  ILE375  ASN378  PHE381  TYR383  GLN384  PHE387  LEU408  LEU417 
 MET419  LEU428  TYR466  MET469  ASN472  ASP496  VAL498  LEU499  MET503  HIS524 
 TRP525 

> <Gold.Protein.RotatedAtoms>
   -3.7364  -29.5128  -30.1731 H   0  0  0  0  0  0  0  0  0  0  0  0  # atno 3525 bound_to 925 
  -11.6660  -23.7195  -31.4310 H   0  0  0  0  0  0  0  0  0  0  0  0  # atno 3677 bound_to 1070
  -10.7921  -37.2209  -33.6988 H   0  0  0  0  0  0  0  0  0  0  0  0  # atno 3781 bound_to 1176
  -16.0079  -27.6554  -37.3444 H   0  0  0  0  0  0  0  0  0  0  0  0  # atno 3847 bound_to 1247
  -12.4317  -24.0662  -39.1740 H   0  0  0  0  0  0  0  0  0  0  0  0  # atno 4507 bound_to 1931
   -2.8756  -32.5221  -36.6859 H   0  0  0  0  0  0  0  0  0  0  0  0  # atno 4531 bound_to 1957
   -9.4451  -36.3084  -33.7279 LP  0  0  0  0  0  0  0  0  0  0  0  0  # atno 5205 bound_to 1176
   -9.8683  -37.1014  -32.3645 LP  0  0  0  0  0  0  0  0  0  0  0  0  # atno 5206 bound_to 1176
  -14.4976  -27.6180  -37.9488 LP  0  0  0  0  0  0  0  0  0  0  0  0  # atno 5215 bound_to 1247
  -15.0531  -28.9667  -37.2148 LP  0  0  0  0  0  0  0  0  0  0  0  0  # atno 5216 bound_to 1247
  -13.3996  -25.3719  -39.2532 LP  0  0  0  0  0  0  0  0  0  0  0  0  # atno 5217 bound_to 1931
  -13.3680  -24.2996  -40.4843 LP  0  0  0  0  0  0  0  0  0  0  0  0  # atno 5218 bound_to 1931
  -11.3864  -22.2701  -30.7460 LP  0  0  0  0  0  0  0  0  0  0  0  0  # atno 5224 bound_to 1070
  -12.8036  -23.0390  -30.4872 LP  0  0  0  0  0  0  0  0  0  0  0  0  # atno 5225 bound_to 1070

$$$$
Livi_174a|Lisa_paper2_min|sdf|10|dock5
  -GOLD-  10182017 93D 1   1.00000     0.00000

 63 66  0  0  0  0  0  0  0  0  1 V2000
   -3.7409  -31.4218  -34.1425 C   0  0  0  0  0  0  0  0  0  0  0  0
   -4.3303  -31.7814  -32.9323 C   0  0  0  0  0  0  0  0  0  0  0  0
   -4.4805  -30.7628  -35.1288 C   0  0  0  0  0  0  0  0  0  0  0  0
   -5.6741  -31.4952  -32.6672 C   0  0  0  0  0  0  0  0  0  0  0  0
  -12.3049  -26.8518  -36.6448 C   0  0  0  0  0  0  0  0  0  0  0  0
  -16.7733  -22.8125  -39.2944 C   0  0  0  0  0  0  0  0  0  0  0  0
  -11.3574  -27.7206  -36.1036 C   0  0  0  0  0  0  0  0  0  0  0  0
  -18.0803  -22.6548  -39.7551 C   0  0  0  0  0  0  0  0  0  0  0  0
  -11.3505  -25.0255  -35.3836 C   0  0  0  0  0  0  0  0  0  0  0  0
  -17.5780  -24.1958  -37.4845 C   0  0  0  0  0  0  0  0  0  0  0  0
  -10.4029  -25.8943  -34.8424 C   0  0  0  0  0  0  0  0  0  0  0  0
   -5.8326  -30.4677  -34.8790 C   0  0  0  0  0  0  0  0  0  0  0  0
   -6.4088  -30.8339  -33.6620 C   0  0  0  0  0  0  0  0  0  0  0  0
  -12.3015  -25.5041  -36.2848 C   0  0  0  0  0  0  0  0  0  0  0  0
  -16.5221  -23.5830  -38.1591 C   0  0  0  0  0  0  0  0  0  0  0  0
  -10.4065  -27.2419  -35.2024 C   0  0  0  0  0  0  0  0  0  0  0  0
  -19.1363  -23.2676  -39.0804 C   0  0  0  0  0  0  0  0  0  0  0  0
  -18.8851  -24.0381  -37.9451 C   0  0  0  0  0  0  0  0  0  0  0  0
   -7.8542  -29.8128  -34.9879 C   0  0  0  0  0  0  0  0  0  0  0  0
   -8.7240  -30.5327  -32.7724 C   0  0  0  0  0  0  0  0  0  0  0  0
  -14.5941  -24.9039  -37.1806 C   0  0  0  0  0  0  0  0  0  0  0  0
   -9.3923  -25.3648  -33.8792 C   0  0  0  0  0  0  0  0  0  0  0  0
  -10.7808  -29.3715  -31.0778 C   0  0  0  0  0  0  0  0  0  0  0  0
  -12.2426  -29.6503  -33.1014 C   0  0  0  0  0  0  0  0  0  0  0  0
  -11.1565  -31.6596  -32.0567 C   0  0  0  0  0  0  0  0  0  0  0  0
   -9.1048  -29.2094  -35.5034 C   0  0  0  0  0  0  0  0  0  0  0  0
  -11.0120  -30.1691  -32.3605 C   0  0  0  0  0  0  0  0  0  0  0  0
   -6.7428  -29.8381  -35.6845 N   0  0  0  0  0  0  0  0  0  0  0  0
   -7.7269  -30.4010  -33.7454 N   0  0  0  0  0  0  0  0  0  0  0  0
  -13.2493  -24.6353  -36.8264 N   0  0  0  0  0  0  0  0  0  0  0  0
  -15.1959  -23.7431  -37.6925 N   0  0  0  0  0  0  0  0  0  0  0  0
   -8.5002  -31.0740  -31.7023 O   0  0  0  0  0  0  0  0  0  0  0  0
  -15.1451  -25.9929  -37.0558 O   0  0  0  0  0  0  0  0  0  0  0  0
   -9.4840  -28.1081  -34.6812 O   0  0  0  0  0  0  0  0  0  0  0  0
   -9.8829  -29.9866  -33.2198 O   0  0  0  0  0  0  0  0  0  0  0  0
  -20.7333  -23.0319  -39.6988 Cl  0  0  0  0  0  0  0  0  0  0  0  0
  -20.1512  -24.8203  -37.0653 Cl  0  0  0  0  0  0  0  0  0  0  0  0
   -2.6953  -31.6558  -34.3232 H   0  0  0  0  0  0  0  0  0  0  0  0
   -3.7364  -32.2939  -32.1794 H   0  0  0  0  0  0  0  0  0  0  0  0
   -4.0148  -30.4860  -36.0696 H   0  0  0  0  0  0  0  0  0  0  0  0
   -6.1087  -31.7856  -31.7180 H   0  0  0  0  0  0  0  0  0  0  0  0
  -13.0413  -27.2359  -37.3462 H   0  0  0  0  0  0  0  0  0  0  0  0
  -15.9576  -22.3319  -39.8284 H   0  0  0  0  0  0  0  0  0  0  0  0
  -11.3656  -28.7693  -36.3884 H   0  0  0  0  0  0  0  0  0  0  0  0
  -18.2575  -22.0520  -40.6423 H   0  0  0  0  0  0  0  0  0  0  0  0
  -11.3465  -23.9747  -35.1019 H   0  0  0  0  0  0  0  0  0  0  0  0
  -17.3758  -24.7946  -36.5986 H   0  0  0  0  0  0  0  0  0  0  0  0
   -8.4690  -25.0968  -34.4060 H   0  0  0  0  0  0  0  0  0  0  0  0
   -9.7683  -24.4753  -33.3587 H   0  0  0  0  0  0  0  0  0  0  0  0
   -9.1518  -26.1077  -33.1083 H   0  0  0  0  0  0  0  0  0  0  0  0
   -9.9280  -29.7721  -30.5183 H   0  0  0  0  0  0  0  0  0  0  0  0
  -10.5923  -28.3138  -31.2889 H   0  0  0  0  0  0  0  0  0  0  0  0
  -11.6483  -29.4422  -30.4116 H   0  0  0  0  0  0  0  0  0  0  0  0
  -12.1587  -28.5742  -33.2916 H   0  0  0  0  0  0  0  0  0  0  0  0
  -13.1477  -29.7876  -32.4987 H   0  0  0  0  0  0  0  0  0  0  0  0
  -12.3830  -30.1618  -34.0592 H   0  0  0  0  0  0  0  0  0  0  0  0
  -12.1900  -31.9053  -31.7867 H   0  0  0  0  0  0  0  0  0  0  0  0
  -10.8676  -32.2757  -32.9143 H   0  0  0  0  0  0  0  0  0  0  0  0
  -10.5368  -31.9443  -31.1987 H   0  0  0  0  0  0  0  0  0  0  0  0
   -8.9889  -28.8429  -36.5367 H   0  0  0  0  0  0  0  0  0  0  0  0
   -9.9338  -29.9359  -35.5123 H   0  0  0  0  0  0  0  0  0  0  0  0
  -12.9300  -23.6746  -36.9896 H   0  0  0  0  0  0  0  0  0  0  0  0
  -14.6122  -22.9117  -37.7366 H   0  0  0  0  0  0  0  0  0  0  0  0
  1  2  2  0  0  0  0
  1  3  1  0  0  0  0
  2  4  1  0  0  0  0
  3 12  2  0  0  0  0
  4 13  2  0  0  0  0
  5  7  2  0  0  0  0
  5 14  1  0  0  0  0
  6  8  1  0  0  0  0
  6 15  2  0  0  0  0
  7 16  1  0  0  0  0
  8 17  2  0  0  0  0
  9 11  1  0  0  0  0
  9 14  2  0  0  0  0
 10 15  1  0  0  0  0
 10 18  2  0  0  0  0
 11 16  2  0  0  0  0
 11 22  1  0  0  0  0
 12 13  1  0  0  0  0
 12 28  1  0  0  0  0
 13 29  1  0  0  0  0
 14 30  1  0  0  0  0
 15 31  1  0  0  0  0
 16 34  1  0  0  0  0
 17 18  1  0  0  0  0
 17 36  1  0  0  0  0
 18 37  1  0  0  0  0
 19 26  1  0  0  0  0
 19 28  2  0  0  0  0
 19 29  1  0  0  0  0
 20 29  1  0  0  0  0
 20 32  2  0  0  0  0
 20 35  1  0  0  0  0
 21 30  1  0  0  0  0
 21 31  1  0  0  0  0
 21 33  2  0  0  0  0
 23 27  1  0  0  0  0
 24 27  1  0  0  0  0
 25 27  1  0  0  0  0
 26 34  1  0  0  0  0
 27 35  1  0  0  0  0
  1 38  1  0  0  0  0
  2 39  1  0  0  0  0
  3 40  1  0  0  0  0
  4 41  1  0  0  0  0
  5 42  1  0  0  0  0
  6 43  1  0  0  0  0
  7 44  1  0  0  0  0
  8 45  1  0  0  0  0
  9 46  1  0  0  0  0
 10 47  1  0  0  0  0
 22 48  1  0  0  0  0
 22 49  1  0  0  0  0
 22 50  1  0  0  0  0
 23 51  1  0  0  0  0
 23 52  1  0  0  0  0
 23 53  1  0  0  0  0
 24 54  1  0  0  0  0
 24 55  1  0  0  0  0
 24 56  1  0  0  0  0
 25 57  1  0  0  0  0
 25 58  1  0  0  0  0
 25 59  1  0  0  0  0
 26 60  1  0  0  0  0
 26 61  1  0  0  0  0
 30 62  1  0  0  0  0
 31 63  1  0  0  0  0
M  END
> <Clean Energy>
84.5744

> <SourceTag>
Livi_174a

> <Activity_FLAP>
100

> <Activity_sEH>
0.7

> <Gold.Version>
5.2

> <Gold.Id.Protein>
6HGV|6HGV_protein|mol2

> <Gold.Goldscore.Fitness>
82.0916

> <Gold.Goldscore.Internal.Vdw>
-9.3225

> <Gold.Goldscore.Internal.Torsion>
-8.2027

> <Gold.Goldscore.External.Vdw>
58.2566

> <Gold.Goldscore.Internal.HBond>
0.0000

> <Gold.Goldscore.External.HBond>
2.3799

> <Gold.Goldscore.Internal.Correction>
-17.1340

> <Gold.Goldscore.Hbonds>
donor molecule, donor type, donor heavy atom, donor atom, acceptor molecule, acceptor atom, score
      P1  H  1247  3847       L1    33  0.41
      L1  H    30    62       P1   854  0.24
      L1  H    31    63       P1   854  0.02

> <Gold.Goldscore.Internal.Vdw.Weighted>
-9.3225

> <Gold.Goldscore.Internal.Torsion.Weighted>
-8.2027

> <Gold.Goldscore.External.Vdw.Weighted>
80.1029

> <Gold.Goldscore.Internal.HBond.Weighted>
0.0000

> <Gold.Goldscore.External.HBond.Weighted>
2.3799

> <Gold.Goldscore.Internal.Correction.Weighted>
-17.1340

> <Gold.Protein.RotatedTorsions>
[ 3781 1176 1175 1172 ] final  163.16 input   60.00 | X-H torsion
[ 3847 1247 1246 1244 ] final -136.70 input   60.00 | X-H torsion
[ 4507 1931 1930 1928 ] final  -37.95 input   60.00 | X-H torsion
[ 3677 1070 1069 1066 ] final  -80.04 input   60.00 | X-H torsion
[ 3525  925  924  922 ] final   14.96 input   59.99 | X-H torsion
[ 4531 1957 1955 1953 ] final   31.28 input   60.00 | X-H torsion

> <Gold.Protein.ActiveResidues>
 PHE267  PRO268  MET310  ASP335  TRP336  MET339  TYR343  THR360  PRO361  ILE363 
 PRO371  SER374  ILE375  ASN378  PHE381  TYR383  GLN384  PHE387  LEU408  LEU417 
 MET419  LEU428  TYR466  MET469  ASN472  ASP496  VAL498  LEU499  MET503  HIS524 
 TRP525 

> <Gold.Protein.RotatedAtoms>
   -3.4397  -29.5982  -30.6543 H   0  0  0  0  0  0  0  0  0  0  0  0  # atno 3525 bound_to 925 
  -12.0324  -23.8390  -31.3190 H   0  0  0  0  0  0  0  0  0  0  0  0  # atno 3677 bound_to 1070
   -9.3668  -36.6640  -32.6469 H   0  0  0  0  0  0  0  0  0  0  0  0  # atno 3781 bound_to 1176
  -15.2964  -27.1977  -37.7987 H   0  0  0  0  0  0  0  0  0  0  0  0  # atno 3847 bound_to 1247
  -13.5864  -25.3546  -39.5977 H   0  0  0  0  0  0  0  0  0  0  0  0  # atno 4507 bound_to 1931
   -3.0812  -32.9516  -36.6542 H   0  0  0  0  0  0  0  0  0  0  0  0  # atno 4531 bound_to 1957
  -10.7469  -37.4447  -33.0130 LP  0  0  0  0  0  0  0  0  0  0  0  0  # atno 5205 bound_to 1176
  -10.0018  -36.5259  -34.1388 LP  0  0  0  0  0  0  0  0  0  0  0  0  # atno 5206 bound_to 1176
  -14.3728  -28.5290  -37.6493 LP  0  0  0  0  0  0  0  0  0  0  0  0  # atno 5215 bound_to 1247
  -15.8944  -28.5167  -37.0567 LP  0  0  0  0  0  0  0  0  0  0  0  0  # atno 5216 bound_to 1247
  -13.1128  -24.0149  -40.3907 LP  0  0  0  0  0  0  0  0  0  0  0  0  # atno 5217 bound_to 1931
  -12.4919  -24.3591  -38.9202 LP  0  0  0  0  0  0  0  0  0  0  0  0  # atno 5218 bound_to 1931
  -11.1631  -22.5036  -30.9888 LP  0  0  0  0  0  0  0  0  0  0  0  0  # atno 5224 bound_to 1070
  -12.6580  -22.6850  -30.3572 LP  0  0  0  0  0  0  0  0  0  0  0  0  # atno 5225 bound_to 1070

$$$$
Livi_174a|Lisa_paper2_min|sdf|10|dock8
  -GOLD-  10182017103D 1   1.00000     0.00000

 63 66  0  0  0  0  0  0  0  0  1 V2000
   -3.8341  -31.9931  -34.0799 C   0  0  0  0  0  0  0  0  0  0  0  0
   -4.5141  -32.2365  -32.8884 C   0  0  0  0  0  0  0  0  0  0  0  0
   -4.4392  -31.2709  -35.1126 C   0  0  0  0  0  0  0  0  0  0  0  0
   -5.8173  -31.7677  -32.6888 C   0  0  0  0  0  0  0  0  0  0  0  0
  -11.8054  -26.6691  -36.9860 C   0  0  0  0  0  0  0  0  0  0  0  0
  -16.5604  -22.7544  -39.3130 C   0  0  0  0  0  0  0  0  0  0  0  0
  -10.8095  -27.5153  -36.4985 C   0  0  0  0  0  0  0  0  0  0  0  0
  -17.8519  -22.6520  -39.8298 C   0  0  0  0  0  0  0  0  0  0  0  0
  -11.2220  -25.0218  -35.3177 C   0  0  0  0  0  0  0  0  0  0  0  0
  -17.3181  -24.4364  -37.7529 C   0  0  0  0  0  0  0  0  0  0  0  0
  -10.2261  -25.8681  -34.8302 C   0  0  0  0  0  0  0  0  0  0  0  0
   -5.7488  -30.7926  -34.9288 C   0  0  0  0  0  0  0  0  0  0  0  0
   -6.4169  -31.0441  -33.7298 C   0  0  0  0  0  0  0  0  0  0  0  0
  -12.0116  -25.4222  -36.3956 C   0  0  0  0  0  0  0  0  0  0  0  0
  -16.2935  -23.6467  -38.2745 C   0  0  0  0  0  0  0  0  0  0  0  0
  -10.0200  -27.1149  -35.4206 C   0  0  0  0  0  0  0  0  0  0  0  0
  -18.8766  -23.4416  -39.3081 C   0  0  0  0  0  0  0  0  0  0  0  0
  -18.6096  -24.3339  -38.2696 C   0  0  0  0  0  0  0  0  0  0  0  0
   -7.6591  -29.8798  -35.1408 C   0  0  0  0  0  0  0  0  0  0  0  0
   -8.7051  -30.4140  -32.9491 C   0  0  0  0  0  0  0  0  0  0  0  0
  -14.3025  -24.9114  -37.3494 C   0  0  0  0  0  0  0  0  0  0  0  0
   -9.3902  -25.4233  -33.6757 C   0  0  0  0  0  0  0  0  0  0  0  0
  -12.0764  -29.0877  -33.4464 C   0  0  0  0  0  0  0  0  0  0  0  0
  -11.3588  -31.4704  -33.1040 C   0  0  0  0  0  0  0  0  0  0  0  0
  -10.8823  -29.7540  -31.3335 C   0  0  0  0  0  0  0  0  0  0  0  0
   -8.7965  -29.1316  -35.7242 C   0  0  0  0  0  0  0  0  0  0  0  0
  -11.0197  -30.0060  -32.8343 C   0  0  0  0  0  0  0  0  0  0  0  0
   -6.5340  -30.0719  -35.7876 N   0  0  0  0  0  0  0  0  0  0  0  0
   -7.6612  -30.4435  -33.8806 N   0  0  0  0  0  0  0  0  0  0  0  0
  -13.0078  -24.5759  -36.8835 N   0  0  0  0  0  0  0  0  0  0  0  0
  -14.9831  -23.7508  -37.7510 N   0  0  0  0  0  0  0  0  0  0  0  0
   -8.5985  -30.9490  -31.8579 O   0  0  0  0  0  0  0  0  0  0  0  0
  -14.7558  -26.0506  -37.3927 O   0  0  0  0  0  0  0  0  0  0  0  0
   -9.0473  -27.9576  -34.9551 O   0  0  0  0  0  0  0  0  0  0  0  0
   -9.7621  -29.7327  -33.4591 O   0  0  0  0  0  0  0  0  0  0  0  0
  -20.4559  -23.2664  -39.9888 Cl  0  0  0  0  0  0  0  0  0  0  0  0
  -19.8372  -25.3373  -37.5802 Cl  0  0  0  0  0  0  0  0  0  0  0  0
   -2.8226  -32.3683  -34.2094 H   0  0  0  0  0  0  0  0  0  0  0  0
   -4.0244  -32.8010  -32.0987 H   0  0  0  0  0  0  0  0  0  0  0  0
   -3.9034  -31.0854  -36.0384 H   0  0  0  0  0  0  0  0  0  0  0  0
   -6.3244  -31.9706  -31.7529 H   0  0  0  0  0  0  0  0  0  0  0  0
  -12.4147  -26.9917  -37.8265 H   0  0  0  0  0  0  0  0  0  0  0  0
  -15.7689  -22.1355  -39.7277 H   0  0  0  0  0  0  0  0  0  0  0  0
  -10.6540  -28.4853  -36.9631 H   0  0  0  0  0  0  0  0  0  0  0  0
  -18.0415  -21.9523  -40.6401 H   0  0  0  0  0  0  0  0  0  0  0  0
  -11.3817  -24.0496  -34.8563 H   0  0  0  0  0  0  0  0  0  0  0  0
  -17.1040  -25.1297  -36.9419 H   0  0  0  0  0  0  0  0  0  0  0  0
   -9.5915  -26.0480  -32.7976 H   0  0  0  0  0  0  0  0  0  0  0  0
   -8.3209  -25.4872  -33.9122 H   0  0  0  0  0  0  0  0  0  0  0  0
   -9.5974  -24.3776  -33.4155 H   0  0  0  0  0  0  0  0  0  0  0  0
  -11.8801  -28.0411  -33.1880 H   0  0  0  0  0  0  0  0  0  0  0  0
  -12.1055  -29.1771  -34.5373 H   0  0  0  0  0  0  0  0  0  0  0  0
  -13.0726  -29.3214  -33.0534 H   0  0  0  0  0  0  0  0  0  0  0  0
  -12.2665  -31.7662  -32.5657 H   0  0  0  0  0  0  0  0  0  0  0  0
  -10.5591  -32.1286  -32.7457 H   0  0  0  0  0  0  0  0  0  0  0  0
  -11.5115  -31.6598  -34.1715 H   0  0  0  0  0  0  0  0  0  0  0  0
  -11.8262  -29.3925  -30.9095 H   0  0  0  0  0  0  0  0  0  0  0  0
  -10.5880  -30.6622  -30.7974 H   0  0  0  0  0  0  0  0  0  0  0  0
  -10.1364  -28.9757  -31.1356 H   0  0  0  0  0  0  0  0  0  0  0  0
   -8.5967  -28.8249  -36.7641 H   0  0  0  0  0  0  0  0  0  0  0  0
   -9.7171  -29.7377  -35.7402 H   0  0  0  0  0  0  0  0  0  0  0  0
  -12.7711  -23.5784  -36.9080 H   0  0  0  0  0  0  0  0  0  0  0  0
  -14.4774  -22.8736  -37.6573 H   0  0  0  0  0  0  0  0  0  0  0  0
  1  2  2  0  0  0  0
  1  3  1  0  0  0  0
  2  4  1  0  0  0  0
  3 12  2  0  0  0  0
  4 13  2  0  0  0  0
  5  7  2  0  0  0  0
  5 14  1  0  0  0  0
  6  8  1  0  0  0  0
  6 15  2  0  0  0  0
  7 16  1  0  0  0  0
  8 17  2  0  0  0  0
  9 11  1  0  0  0  0
  9 14  2  0  0  0  0
 10 15  1  0  0  0  0
 10 18  2  0  0  0  0
 11 16  2  0  0  0  0
 11 22  1  0  0  0  0
 12 13  1  0  0  0  0
 12 28  1  0  0  0  0
 13 29  1  0  0  0  0
 14 30  1  0  0  0  0
 15 31  1  0  0  0  0
 16 34  1  0  0  0  0
 17 18  1  0  0  0  0
 17 36  1  0  0  0  0
 18 37  1  0  0  0  0
 19 26  1  0  0  0  0
 19 28  2  0  0  0  0
 19 29  1  0  0  0  0
 20 29  1  0  0  0  0
 20 32  2  0  0  0  0
 20 35  1  0  0  0  0
 21 30  1  0  0  0  0
 21 31  1  0  0  0  0
 21 33  2  0  0  0  0
 23 27  1  0  0  0  0
 24 27  1  0  0  0  0
 25 27  1  0  0  0  0
 26 34  1  0  0  0  0
 27 35  1  0  0  0  0
  1 38  1  0  0  0  0
  2 39  1  0  0  0  0
  3 40  1  0  0  0  0
  4 41  1  0  0  0  0
  5 42  1  0  0  0  0
  6 43  1  0  0  0  0
  7 44  1  0  0  0  0
  8 45  1  0  0  0  0
  9 46  1  0  0  0  0
 10 47  1  0  0  0  0
 22 48  1  0  0  0  0
 22 49  1  0  0  0  0
 22 50  1  0  0  0  0
 23 51  1  0  0  0  0
 23 52  1  0  0  0  0
 23 53  1  0  0  0  0
 24 54  1  0  0  0  0
 24 55  1  0  0  0  0
 24 56  1  0  0  0  0
 25 57  1  0  0  0  0
 25 58  1  0  0  0  0
 25 59  1  0  0  0  0
 26 60  1  0  0  0  0
 26 61  1  0  0  0  0
 30 62  1  0  0  0  0
 31 63  1  0  0  0  0
M  END
> <Clean Energy>
84.5744

> <SourceTag>
Livi_174a

> <Activity_FLAP>
100

> <Activity_sEH>
0.7

> <Gold.Version>
5.2

> <Gold.Id.Protein>
6HGV|6HGV_protein|mol2

> <Gold.Goldscore.Fitness>
79.1873

> <Gold.Goldscore.Internal.Vdw>
-14.0316

> <Gold.Goldscore.Internal.Torsion>
-9.3454

> <Gold.Goldscore.External.Vdw>
58.9583

> <Gold.Goldscore.Internal.HBond>
0.0000

> <Gold.Goldscore.External.HBond>
4.3627

> <Gold.Goldscore.Internal.Correction>
-17.1340

> <Gold.Goldscore.Hbonds>
donor molecule, donor type, donor heavy atom, donor atom, acceptor molecule, acceptor atom, score
      P1  H  1247  3847       L1    33  0.52
      P1  H  1994  4571       L1    28  0.01
      L1  H    30    62       P1   854  0.48
      L1  H    31    63       P1   854  0.07

> <Gold.Goldscore.Internal.Vdw.Weighted>
-14.0316

> <Gold.Goldscore.Internal.Torsion.Weighted>
-9.3454

> <Gold.Goldscore.External.Vdw.Weighted>
81.0677

> <Gold.Goldscore.Internal.HBond.Weighted>
0.0000

> <Gold.Goldscore.External.HBond.Weighted>
4.3627

> <Gold.Goldscore.Internal.Correction.Weighted>
-17.1340

> <Gold.Protein.RotatedTorsions>
[ 3781 1176 1175 1172 ] final  154.59 input   60.00 | X-H torsion
[ 3847 1247 1246 1244 ] final -146.92 input   60.00 | X-H torsion
[ 4507 1931 1930 1928 ] final  -86.78 input   60.00 | X-H torsion
[ 3677 1070 1069 1066 ] final -112.20 input   60.00 | X-H torsion
[ 3525  925  924  922 ] final   37.91 input   59.99 | X-H torsion
[ 4531 1957 1955 1953 ] final   68.66 input   60.00 | X-H torsion

> <Gold.Protein.ActiveResidues>
 PHE267  PRO268  MET310  ASP335  TRP336  MET339  TYR343  THR360  PRO361  ILE363 
 PRO371  SER374  ILE375  ASN378  PHE381  TYR383  GLN384  PHE387  LEU408  LEU417 
 MET419  LEU428  TYR466  MET469  ASN472  ASP496  VAL498  LEU499  MET503  HIS524 
 TRP525 

> <Gold.Protein.RotatedAtoms>
   -3.1335  -29.7155  -30.8307 H   0  0  0  0  0  0  0  0  0  0  0  0  # atno 3525 bound_to 925 
  -11.5638  -23.6568  -31.4456 H   0  0  0  0  0  0  0  0  0  0  0  0  # atno 3677 bound_to 1070
   -9.4379  -36.7450  -32.5576 H   0  0  0  0  0  0  0  0  0  0  0  0  # atno 3781 bound_to 1176
  -15.1400  -27.2129  -37.8543 H   0  0  0  0  0  0  0  0  0  0  0  0  # atno 3847 bound_to 1247
  -13.6758  -24.9410  -40.2456 H   0  0  0  0  0  0  0  0  0  0  0  0  # atno 4507 bound_to 1931
   -3.0049  -33.5463  -36.6790 H   0  0  0  0  0  0  0  0  0  0  0  0  # atno 4531 bound_to 1957
  -10.7939  -37.4267  -33.1446 LP  0  0  0  0  0  0  0  0  0  0  0  0  # atno 5205 bound_to 1176
   -9.8831  -36.4623  -34.0971 LP  0  0  0  0  0  0  0  0  0  0  0  0  # atno 5206 bound_to 1176
  -14.4470  -28.6577  -37.5709 LP  0  0  0  0  0  0  0  0  0  0  0  0  # atno 5215 bound_to 1247
  -15.9778  -28.3727  -37.0791 LP  0  0  0  0  0  0  0  0  0  0  0  0  # atno 5216 bound_to 1247
  -12.6186  -23.7727  -39.8389 LP  0  0  0  0  0  0  0  0  0  0  0  0  # atno 5217 bound_to 1931
  -12.8960  -25.0179  -38.8194 LP  0  0  0  0  0  0  0  0  0  0  0  0  # atno 5218 bound_to 1931
  -11.4758  -22.2254  -30.6767 LP  0  0  0  0  0  0  0  0  0  0  0  0  # atno 5224 bound_to 1070
  -12.8172  -23.1467  -30.5418 LP  0  0  0  0  0  0  0  0  0  0  0  0  # atno 5225 bound_to 1070

$$$$
Livi_174a|Lisa_paper2_min|sdf|10|dock10
  -GOLD-  10182017113D 1   1.00000     0.00000

 63 66  0  0  0  0  0  0  0  0  1 V2000
   -3.7692  -31.7882  -33.6680 C   0  0  0  0  0  0  0  0  0  0  0  0
   -4.4486  -31.9144  -32.4581 C   0  0  0  0  0  0  0  0  0  0  0  0
   -4.3737  -31.1674  -34.7649 C   0  0  0  0  0  0  0  0  0  0  0  0
   -5.7507  -31.4258  -32.3036 C   0  0  0  0  0  0  0  0  0  0  0  0
  -11.9525  -26.8676  -36.7783 C   0  0  0  0  0  0  0  0  0  0  0  0
  -17.7777  -23.8746  -37.8718 C   0  0  0  0  0  0  0  0  0  0  0  0
  -10.7921  -27.5557  -36.4238 C   0  0  0  0  0  0  0  0  0  0  0  0
  -18.8790  -23.8095  -38.7252 C   0  0  0  0  0  0  0  0  0  0  0  0
  -11.5020  -25.2253  -35.0645 C   0  0  0  0  0  0  0  0  0  0  0  0
  -16.4046  -24.6487  -39.7027 C   0  0  0  0  0  0  0  0  0  0  0  0
  -10.3416  -25.9134  -34.7101 C   0  0  0  0  0  0  0  0  0  0  0  0
   -5.6821  -30.6708  -34.6270 C   0  0  0  0  0  0  0  0  0  0  0  0
   -6.3497  -30.8044  -33.4090 C   0  0  0  0  0  0  0  0  0  0  0  0
  -12.3074  -25.7023  -36.0986 C   0  0  0  0  0  0  0  0  0  0  0  0
  -16.5404  -24.2943  -38.3606 C   0  0  0  0  0  0  0  0  0  0  0  0
   -9.9867  -27.0786  -35.3897 C   0  0  0  0  0  0  0  0  0  0  0  0
  -18.7432  -24.1640  -40.0674 C   0  0  0  0  0  0  0  0  0  0  0  0
  -17.5059  -24.5836  -40.5562 C   0  0  0  0  0  0  0  0  0  0  0  0
   -7.5907  -29.7784  -34.9245 C   0  0  0  0  0  0  0  0  0  0  0  0
   -8.6358  -30.0971  -32.6907 C   0  0  0  0  0  0  0  0  0  0  0  0
  -14.3939  -25.3143  -37.4825 C   0  0  0  0  0  0  0  0  0  0  0  0
   -9.4911  -25.3884  -33.6007 C   0  0  0  0  0  0  0  0  0  0  0  0
  -10.9149  -29.0439  -31.2387 C   0  0  0  0  0  0  0  0  0  0  0  0
  -12.0286  -29.0378  -33.4901 C   0  0  0  0  0  0  0  0  0  0  0  0
  -11.1850  -31.1945  -32.5179 C   0  0  0  0  0  0  0  0  0  0  0  0
   -8.7270  -29.0872  -35.5763 C   0  0  0  0  0  0  0  0  0  0  0  0
  -10.9521  -29.6881  -32.6237 C   0  0  0  0  0  0  0  0  0  0  0  0
   -6.4666  -30.0342  -35.5506 N   0  0  0  0  0  0  0  0  0  0  0  0
   -7.5928  -30.2183  -33.6159 N   0  0  0  0  0  0  0  0  0  0  0  0
  -13.4681  -25.0143  -36.4535 N   0  0  0  0  0  0  0  0  0  0  0  0
  -15.4234  -24.3596  -37.4946 N   0  0  0  0  0  0  0  0  0  0  0  0
   -8.5293  -30.5249  -31.5532 O   0  0  0  0  0  0  0  0  0  0  0  0
  -14.3030  -26.2696  -38.2469 O   0  0  0  0  0  0  0  0  0  0  0  0
   -8.8516  -27.7660  -35.0551 O   0  0  0  0  0  0  0  0  0  0  0  0
   -9.6918  -29.4657  -33.2632 O   0  0  0  0  0  0  0  0  0  0  0  0
  -20.1454  -24.0650  -41.0735 Cl  0  0  0  0  0  0  0  0  0  0  0  0
  -17.2752  -25.0378  -42.2083 Cl  0  0  0  0  0  0  0  0  0  0  0  0
   -2.7586  -32.1764  -33.7615 H   0  0  0  0  0  0  0  0  0  0  0  0
   -3.9594  -32.4015  -31.6181 H   0  0  0  0  0  0  0  0  0  0  0  0
   -3.8384  -31.0730  -35.7046 H   0  0  0  0  0  0  0  0  0  0  0  0
   -6.2573  -31.5366  -31.3522 H   0  0  0  0  0  0  0  0  0  0  0  0
  -12.5726  -27.2487  -37.5858 H   0  0  0  0  0  0  0  0  0  0  0  0
  -17.8941  -23.5947  -36.8280 H   0  0  0  0  0  0  0  0  0  0  0  0
  -10.5213  -28.4628  -36.9574 H   0  0  0  0  0  0  0  0  0  0  0  0
  -19.8353  -23.4788  -38.3275 H   0  0  0  0  0  0  0  0  0  0  0  0
  -11.7775  -24.3166  -34.5336 H   0  0  0  0  0  0  0  0  0  0  0  0
  -15.4371  -24.9765  -40.0779 H   0  0  0  0  0  0  0  0  0  0  0  0
   -8.4298  -25.4770  -33.8607 H   0  0  0  0  0  0  0  0  0  0  0  0
   -9.7135  -24.3339  -33.3952 H   0  0  0  0  0  0  0  0  0  0  0  0
   -9.6699  -25.9396  -32.6689 H   0  0  0  0  0  0  0  0  0  0  0  0
  -10.4365  -28.0589  -31.2798 H   0  0  0  0  0  0  0  0  0  0  0  0
  -11.9203  -28.9250  -30.8219 H   0  0  0  0  0  0  0  0  0  0  0  0
  -10.3208  -29.6472  -30.5426 H   0  0  0  0  0  0  0  0  0  0  0  0
  -11.8960  -27.9505  -33.5265 H   0  0  0  0  0  0  0  0  0  0  0  0
  -13.0259  -29.2134  -33.0707 H   0  0  0  0  0  0  0  0  0  0  0  0
  -12.0104  -29.4238  -34.5145 H   0  0  0  0  0  0  0  0  0  0  0  0
  -10.4957  -31.6471  -31.7960 H   0  0  0  0  0  0  0  0  0  0  0  0
  -12.2098  -31.4232  -32.2075 H   0  0  0  0  0  0  0  0  0  0  0  0
  -10.9940  -31.6868  -33.4783 H   0  0  0  0  0  0  0  0  0  0  0  0
   -8.5925  -29.0146  -36.6681 H   0  0  0  0  0  0  0  0  0  0  0  0
   -9.6782  -29.6175  -35.4053 H   0  0  0  0  0  0  0  0  0  0  0  0
  -13.6791  -24.1804  -35.8950 H   0  0  0  0  0  0  0  0  0  0  0  0
  -15.3647  -23.6211  -36.7981 H   0  0  0  0  0  0  0  0  0  0  0  0
  1  2  2  0  0  0  0
  1  3  1  0  0  0  0
  2  4  1  0  0  0  0
  3 12  2  0  0  0  0
  4 13  2  0  0  0  0
  5  7  2  0  0  0  0
  5 14  1  0  0  0  0
  6  8  1  0  0  0  0
  6 15  2  0  0  0  0
  7 16  1  0  0  0  0
  8 17  2  0  0  0  0
  9 11  1  0  0  0  0
  9 14  2  0  0  0  0
 10 15  1  0  0  0  0
 10 18  2  0  0  0  0
 11 16  2  0  0  0  0
 11 22  1  0  0  0  0
 12 13  1  0  0  0  0
 12 28  1  0  0  0  0
 13 29  1  0  0  0  0
 14 30  1  0  0  0  0
 15 31  1  0  0  0  0
 16 34  1  0  0  0  0
 17 18  1  0  0  0  0
 17 36  1  0  0  0  0
 18 37  1  0  0  0  0
 19 26  1  0  0  0  0
 19 28  2  0  0  0  0
 19 29  1  0  0  0  0
 20 29  1  0  0  0  0
 20 32  2  0  0  0  0
 20 35  1  0  0  0  0
 21 30  1  0  0  0  0
 21 31  1  0  0  0  0
 21 33  2  0  0  0  0
 23 27  1  0  0  0  0
 24 27  1  0  0  0  0
 25 27  1  0  0  0  0
 26 34  1  0  0  0  0
 27 35  1  0  0  0  0
  1 38  1  0  0  0  0
  2 39  1  0  0  0  0
  3 40  1  0  0  0  0
  4 41  1  0  0  0  0
  5 42  1  0  0  0  0
  6 43  1  0  0  0  0
  7 44  1  0  0  0  0
  8 45  1  0  0  0  0
  9 46  1  0  0  0  0
 10 47  1  0  0  0  0
 22 48  1  0  0  0  0
 22 49  1  0  0  0  0
 22 50  1  0  0  0  0
 23 51  1  0  0  0  0
 23 52  1  0  0  0  0
 23 53  1  0  0  0  0
 24 54  1  0  0  0  0
 24 55  1  0  0  0  0
 24 56  1  0  0  0  0
 25 57  1  0  0  0  0
 25 58  1  0  0  0  0
 25 59  1  0  0  0  0
 26 60  1  0  0  0  0
 26 61  1  0  0  0  0
 30 62  1  0  0  0  0
 31 63  1  0  0  0  0
M  END
> <Clean Energy>
84.5744

> <SourceTag>
Livi_174a

> <Activity_FLAP>
100

> <Activity_sEH>
0.7

> <Gold.Version>
5.2

> <Gold.Id.Protein>
6HGV|6HGV_protein|mol2

> <Gold.Goldscore.Fitness>
78.8614

> <Gold.Goldscore.Internal.Vdw>
-18.5746

> <Gold.Goldscore.Internal.Torsion>
-6.1074

> <Gold.Goldscore.External.Vdw>
58.3633

> <Gold.Goldscore.Internal.HBond>
0.0000

> <Gold.Goldscore.External.HBond>
6.1599

> <Gold.Goldscore.Internal.Correction>
-17.1340

> <Gold.Goldscore.Hbonds>
donor molecule, donor type, donor heavy atom, donor atom, acceptor molecule, acceptor atom, score
      L1  H    30    62       P1   853  0.91
      L1  H    31    63       P1   853  0.12

> <Gold.Goldscore.Internal.Vdw.Weighted>
-18.5746

> <Gold.Goldscore.Internal.Torsion.Weighted>
-6.1074

> <Gold.Goldscore.External.Vdw.Weighted>
80.2495

> <Gold.Goldscore.Internal.HBond.Weighted>
0.0000

> <Gold.Goldscore.External.HBond.Weighted>
6.1599

> <Gold.Goldscore.Internal.Correction.Weighted>
-17.1340

> <Gold.Protein.RotatedTorsions>
[ 3781 1176 1175 1172 ] final   68.38 input   60.00 | X-H torsion
[ 3847 1247 1246 1244 ] final  -68.15 input   60.00 | X-H torsion
[ 4507 1931 1930 1928 ] final  101.16 input   60.00 | X-H torsion
[ 3677 1070 1069 1066 ] final -103.40 input   60.00 | X-H torsion
[ 3525  925  924  922 ] final   33.13 input   59.99 | X-H torsion
[ 4531 1957 1955 1953 ] final   63.91 input   60.00 | X-H torsion

> <Gold.Protein.ActiveResidues>
 PHE267  PRO268  MET310  ASP335  TRP336  MET339  TYR343  THR360  PRO361  ILE363 
 PRO371  SER374  ILE375  ASN378  PHE381  TYR383  GLN384  PHE387  LEU408  LEU417 
 MET419  LEU428  TYR466  MET469  ASN472  ASP496  VAL498  LEU499  MET503  HIS524 
 TRP525 

> <Gold.Protein.RotatedAtoms>
   -3.2019  -29.6881  -30.8050 H   0  0  0  0  0  0  0  0  0  0  0  0  # atno 3525 bound_to 925 
  -11.6860  -23.7300  -31.4272 H   0  0  0  0  0  0  0  0  0  0  0  0  # atno 3677 bound_to 1070
  -10.5175  -37.4218  -32.6736 H   0  0  0  0  0  0  0  0  0  0  0  0  # atno 3781 bound_to 1176
  -16.0400  -27.7506  -37.2954 H   0  0  0  0  0  0  0  0  0  0  0  0  # atno 3847 bound_to 1247
  -12.4356  -24.1216  -39.1145 H   0  0  0  0  0  0  0  0  0  0  0  0  # atno 4507 bound_to 1931
   -3.0356  -33.4754  -36.6719 H   0  0  0  0  0  0  0  0  0  0  0  0  # atno 4531 bound_to 1957
  -10.3456  -36.7523  -34.1467 LP  0  0  0  0  0  0  0  0  0  0  0  0  # atno 5205 bound_to 1176
   -9.2443  -36.4552  -32.9782 LP  0  0  0  0  0  0  0  0  0  0  0  0  # atno 5206 bound_to 1176
  -14.5685  -27.5308  -37.9543 LP  0  0  0  0  0  0  0  0  0  0  0  0  # atno 5215 bound_to 1247
  -14.9499  -28.9581  -37.2586 LP  0  0  0  0  0  0  0  0  0  0  0  0  # atno 5216 bound_to 1247
  -13.4454  -25.3809  -39.3205 LP  0  0  0  0  0  0  0  0  0  0  0  0  # atno 5217 bound_to 1931
  -13.3182  -24.2349  -40.4769 LP  0  0  0  0  0  0  0  0  0  0  0  0  # atno 5218 bound_to 1931
  -11.3705  -22.2800  -30.7595 LP  0  0  0  0  0  0  0  0  0  0  0  0  # atno 5224 bound_to 1070
  -12.7994  -23.0184  -30.4775 LP  0  0  0  0  0  0  0  0  0  0  0  0  # atno 5225 bound_to 1070

$$$$
Livi_174a|Lisa_paper2_min|sdf|10|dock9
  -GOLD-  10182017103D 1   1.00000     0.00000

 63 66  0  0  0  0  0  0  0  0  1 V2000
   -3.6631  -31.8698  -33.7773 C   0  0  0  0  0  0  0  0  0  0  0  0
   -4.3222  -32.0153  -32.5584 C   0  0  0  0  0  0  0  0  0  0  0  0
   -4.2895  -31.2407  -34.8571 C   0  0  0  0  0  0  0  0  0  0  0  0
   -5.6253  -31.5384  -32.3776 C   0  0  0  0  0  0  0  0  0  0  0  0
  -11.9341  -26.9953  -36.7027 C   0  0  0  0  0  0  0  0  0  0  0  0
  -17.6530  -23.8446  -37.9237 C   0  0  0  0  0  0  0  0  0  0  0  0
  -10.7803  -27.6929  -36.3454 C   0  0  0  0  0  0  0  0  0  0  0  0
  -18.7410  -23.7591  -38.7923 C   0  0  0  0  0  0  0  0  0  0  0  0
  -11.3677  -25.2525  -35.1283 C   0  0  0  0  0  0  0  0  0  0  0  0
  -16.2826  -24.6923  -39.7238 C   0  0  0  0  0  0  0  0  0  0  0  0
  -10.2139  -25.9501  -34.7710 C   0  0  0  0  0  0  0  0  0  0  0  0
   -5.5992  -30.7557  -34.6928 C   0  0  0  0  0  0  0  0  0  0  0  0
   -6.2464  -30.9086  -33.4660 C   0  0  0  0  0  0  0  0  0  0  0  0
  -12.2278  -25.7750  -36.0941 C   0  0  0  0  0  0  0  0  0  0  0  0
  -16.4237  -24.3112  -38.3895 C   0  0  0  0  0  0  0  0  0  0  0  0
   -9.9203  -27.1704  -35.3795 C   0  0  0  0  0  0  0  0  0  0  0  0
  -18.5999  -24.1403  -40.1266 C   0  0  0  0  0  0  0  0  0  0  0  0
  -17.3706  -24.6069  -40.5924 C   0  0  0  0  0  0  0  0  0  0  0  0
   -7.5188  -29.8744  -34.9495 C   0  0  0  0  0  0  0  0  0  0  0  0
   -8.5259  -30.2272  -32.7034 C   0  0  0  0  0  0  0  0  0  0  0  0
  -14.2923  -25.3537  -37.5010 C   0  0  0  0  0  0  0  0  0  0  0  0
   -9.3044  -25.3760  -33.7353 C   0  0  0  0  0  0  0  0  0  0  0  0
  -10.7930  -29.0508  -31.2416 C   0  0  0  0  0  0  0  0  0  0  0  0
  -11.9477  -29.2540  -33.4631 C   0  0  0  0  0  0  0  0  0  0  0  0
  -11.0231  -31.3026  -32.3421 C   0  0  0  0  0  0  0  0  0  0  0  0
   -8.6705  -29.1843  -35.5750 C   0  0  0  0  0  0  0  0  0  0  0  0
  -10.8367  -29.8034  -32.5707 C   0  0  0  0  0  0  0  0  0  0  0  0
   -6.4029  -30.1144  -35.5962 N   0  0  0  0  0  0  0  0  0  0  0  0
   -7.4969  -30.3296  -33.6463 N   0  0  0  0  0  0  0  0  0  0  0  0
  -13.3819  -25.0774  -36.4517 N   0  0  0  0  0  0  0  0  0  0  0  0
  -15.3201  -24.3971  -37.5082 N   0  0  0  0  0  0  0  0  0  0  0  0
   -8.3982  -30.6674  -31.5729 O   0  0  0  0  0  0  0  0  0  0  0  0
  -14.1912  -26.2925  -38.2842 O   0  0  0  0  0  0  0  0  0  0  0  0
   -8.7925  -27.8680  -35.0411 O   0  0  0  0  0  0  0  0  0  0  0  0
   -9.5955  -29.5972  -33.2516 O   0  0  0  0  0  0  0  0  0  0  0  0
  -19.9857  -24.0142  -41.1522 Cl  0  0  0  0  0  0  0  0  0  0  0  0
  -17.1340  -25.0959  -42.2337 Cl  0  0  0  0  0  0  0  0  0  0  0  0
   -2.6512  -32.2491  -33.8914 H   0  0  0  0  0  0  0  0  0  0  0  0
   -3.8162  -32.5084  -31.7321 H   0  0  0  0  0  0  0  0  0  0  0  0
   -3.7699  -31.1312  -35.8040 H   0  0  0  0  0  0  0  0  0  0  0  0
   -6.1159  -31.6642  -31.4197 H   0  0  0  0  0  0  0  0  0  0  0  0
  -12.5972  -27.4122  -37.4565 H   0  0  0  0  0  0  0  0  0  0  0  0
  -17.7734  -23.5436  -36.8862 H   0  0  0  0  0  0  0  0  0  0  0  0
  -10.5574  -28.6431  -36.8234 H   0  0  0  0  0  0  0  0  0  0  0  0
  -19.6912  -23.3918  -38.4124 H   0  0  0  0  0  0  0  0  0  0  0  0
  -11.5954  -24.3009  -34.6528 H   0  0  0  0  0  0  0  0  0  0  0  0
  -15.3214  -25.0567  -40.0810 H   0  0  0  0  0  0  0  0  0  0  0  0
   -8.5057  -24.7946  -34.2108 H   0  0  0  0  0  0  0  0  0  0  0  0
   -9.8513  -24.7200  -33.0467 H   0  0  0  0  0  0  0  0  0  0  0  0
   -8.8467  -26.1663  -33.1272 H   0  0  0  0  0  0  0  0  0  0  0  0
  -10.4890  -28.0090  -31.3936 H   0  0  0  0  0  0  0  0  0  0  0  0
  -11.7667  -29.0594  -30.7410 H   0  0  0  0  0  0  0  0  0  0  0  0
  -10.0523  -29.4935  -30.5657 H   0  0  0  0  0  0  0  0  0  0  0  0
  -11.8403  -28.1717  -33.5983 H   0  0  0  0  0  0  0  0  0  0  0  0
  -12.9306  -29.4118  -33.0044 H   0  0  0  0  0  0  0  0  0  0  0  0
  -11.9453  -29.7287  -34.4497 H   0  0  0  0  0  0  0  0  0  0  0  0
  -10.4195  -31.6470  -31.4946 H   0  0  0  0  0  0  0  0  0  0  0  0
  -12.0705  -31.5532  -32.1449 H   0  0  0  0  0  0  0  0  0  0  0  0
  -10.6865  -31.8747  -33.2142 H   0  0  0  0  0  0  0  0  0  0  0  0
   -8.5561  -29.1024  -36.6685 H   0  0  0  0  0  0  0  0  0  0  0  0
   -9.6156  -29.7211  -35.3911 H   0  0  0  0  0  0  0  0  0  0  0  0
  -13.6002  -24.2554  -35.8788 H   0  0  0  0  0  0  0  0  0  0  0  0
  -15.2710  -23.6738  -36.7952 H   0  0  0  0  0  0  0  0  0  0  0  0
  1  2  2  0  0  0  0
  1  3  1  0  0  0  0
  2  4  1  0  0  0  0
  3 12  2  0  0  0  0
  4 13  2  0  0  0  0
  5  7  2  0  0  0  0
  5 14  1  0  0  0  0
  6  8  1  0  0  0  0
  6 15  2  0  0  0  0
  7 16  1  0  0  0  0
  8 17  2  0  0  0  0
  9 11  1  0  0  0  0
  9 14  2  0  0  0  0
 10 15  1  0  0  0  0
 10 18  2  0  0  0  0
 11 16  2  0  0  0  0
 11 22  1  0  0  0  0
 12 13  1  0  0  0  0
 12 28  1  0  0  0  0
 13 29  1  0  0  0  0
 14 30  1  0  0  0  0
 15 31  1  0  0  0  0
 16 34  1  0  0  0  0
 17 18  1  0  0  0  0
 17 36  1  0  0  0  0
 18 37  1  0  0  0  0
 19 26  1  0  0  0  0
 19 28  2  0  0  0  0
 19 29  1  0  0  0  0
 20 29  1  0  0  0  0
 20 32  2  0  0  0  0
 20 35  1  0  0  0  0
 21 30  1  0  0  0  0
 21 31  1  0  0  0  0
 21 33  2  0  0  0  0
 23 27  1  0  0  0  0
 24 27  1  0  0  0  0
 25 27  1  0  0  0  0
 26 34  1  0  0  0  0
 27 35  1  0  0  0  0
  1 38  1  0  0  0  0
  2 39  1  0  0  0  0
  3 40  1  0  0  0  0
  4 41  1  0  0  0  0
  5 42  1  0  0  0  0
  6 43  1  0  0  0  0
  7 44  1  0  0  0  0
  8 45  1  0  0  0  0
  9 46  1  0  0  0  0
 10 47  1  0  0  0  0
 22 48  1  0  0  0  0
 22 49  1  0  0  0  0
 22 50  1  0  0  0  0
 23 51  1  0  0  0  0
 23 52  1  0  0  0  0
 23 53  1  0  0  0  0
 24 54  1  0  0  0  0
 24 55  1  0  0  0  0
 24 56  1  0  0  0  0
 25 57  1  0  0  0  0
 25 58  1  0  0  0  0
 25 59  1  0  0  0  0
 26 60  1  0  0  0  0
 26 61  1  0  0  0  0
 30 62  1  0  0  0  0
 31 63  1  0  0  0  0
M  END
> <Clean Energy>
84.5744

> <SourceTag>
Livi_174a

> <Activity_FLAP>
100

> <Activity_sEH>
0.7

> <Gold.Version>
5.2

> <Gold.Id.Protein>
6HGV|6HGV_protein|mol2

> <Gold.Goldscore.Fitness>
78.7401

> <Gold.Goldscore.Internal.Vdw>
-19.6994

> <Gold.Goldscore.Internal.Torsion>
-5.7624

> <Gold.Goldscore.External.Vdw>
58.4312

> <Gold.Goldscore.Internal.HBond>
0.0000

> <Gold.Goldscore.External.HBond>
6.7250

> <Gold.Goldscore.Internal.Correction>
-17.1340

> <Gold.Goldscore.Hbonds>
donor molecule, donor type, donor heavy atom, donor atom, acceptor molecule, acceptor atom, score
      P1  H  1994  4571       L1    28  0.01
      L1  H    30    62       P1   853  0.95
      L1  H    31    63       P1   853  0.17

> <Gold.Goldscore.Internal.Vdw.Weighted>
-19.6994

> <Gold.Goldscore.Internal.Torsion.Weighted>
-5.7624

> <Gold.Goldscore.External.Vdw.Weighted>
80.3429

> <Gold.Goldscore.Internal.HBond.Weighted>
0.0000

> <Gold.Goldscore.External.HBond.Weighted>
6.7250

> <Gold.Goldscore.Internal.Correction.Weighted>
-17.1340

> <Gold.Protein.RotatedTorsions>
[ 3781 1176 1175 1172 ] final  -49.97 input   60.00 | X-H torsion
[ 3847 1247 1246 1244 ] final  -67.71 input   60.00 | X-H torsion
[ 4507 1931 1930 1928 ] final  107.56 input   60.00 | X-H torsion
[ 3677 1070 1069 1066 ] final -110.59 input   60.00 | X-H torsion
[ 3525  925  924  922 ] final    6.72 input   59.99 | X-H torsion
[ 4531 1957 1955 1953 ] final   83.52 input   60.00 | X-H torsion

> <Gold.Protein.ActiveResidues>
 PHE267  PRO268  MET310  ASP335  TRP336  MET339  TYR343  THR360  PRO361  ILE363 
 PRO371  SER374  ILE375  ASN378  PHE381  TYR383  GLN384  PHE387  LEU408  LEU417 
 MET419  LEU428  TYR466  MET469  ASN472  ASP496  VAL498  LEU499  MET503  HIS524 
 TRP525 

> <Gold.Protein.RotatedAtoms>
   -3.5316  -29.5666  -30.5612 H   0  0  0  0  0  0  0  0  0  0  0  0  # atno 3525 bound_to 925 
  -11.5854  -23.6714  -31.4432 H   0  0  0  0  0  0  0  0  0  0  0  0  # atno 3677 bound_to 1070
  -10.3631  -36.7711  -34.1358 H   0  0  0  0  0  0  0  0  0  0  0  0  # atno 3781 bound_to 1176
  -16.0417  -27.7568  -37.2923 H   0  0  0  0  0  0  0  0  0  0  0  0  # atno 3847 bound_to 1247
  -12.4314  -24.0511  -39.1917 H   0  0  0  0  0  0  0  0  0  0  0  0  # atno 4507 bound_to 1931
   -2.8734  -33.7477  -36.7075 H   0  0  0  0  0  0  0  0  0  0  0  0  # atno 4531 bound_to 1957
   -9.2417  -36.4442  -33.0028 LP  0  0  0  0  0  0  0  0  0  0  0  0  # atno 5205 bound_to 1176
  -10.5037  -37.4185  -32.6495 LP  0  0  0  0  0  0  0  0  0  0  0  0  # atno 5206 bound_to 1176
  -14.5733  -27.5255  -37.9544 LP  0  0  0  0  0  0  0  0  0  0  0  0  # atno 5215 bound_to 1247
  -14.9434  -28.9571  -37.2615 LP  0  0  0  0  0  0  0  0  0  0  0  0  # atno 5216 bound_to 1247
  -13.3860  -25.3683  -39.2345 LP  0  0  0  0  0  0  0  0  0  0  0  0  # atno 5217 bound_to 1931
  -13.3818  -24.3184  -40.4852 LP  0  0  0  0  0  0  0  0  0  0  0  0  # atno 5218 bound_to 1931
  -11.4557  -22.2340  -30.6914 LP  0  0  0  0  0  0  0  0  0  0  0  0  # atno 5224 bound_to 1070
  -12.8155  -23.1235  -30.5295 LP  0  0  0  0  0  0  0  0  0  0  0  0  # atno 5225 bound_to 1070

$$$$
Livi_174a|Lisa_paper2_min|sdf|10|dock3
  -GOLD-  10182017 83D 1   1.00000     0.00000

 63 66  0  0  0  0  0  0  0  0  1 V2000
   -3.0258  -29.9324  -33.0336 C   0  0  0  0  0  0  0  0  0  0  0  0
   -3.3957  -31.2638  -33.2122 C   0  0  0  0  0  0  0  0  0  0  0  0
   -3.8906  -28.8962  -33.3977 C   0  0  0  0  0  0  0  0  0  0  0  0
   -4.6382  -31.6038  -33.7586 C   0  0  0  0  0  0  0  0  0  0  0  0
  -11.7896  -26.8275  -36.6061 C   0  0  0  0  0  0  0  0  0  0  0  0
  -15.9666  -24.7889  -40.0272 C   0  0  0  0  0  0  0  0  0  0  0  0
  -10.6136  -27.4317  -36.1616 C   0  0  0  0  0  0  0  0  0  0  0  0
  -16.9613  -24.7556  -41.0045 C   0  0  0  0  0  0  0  0  0  0  0  0
  -11.4388  -25.0064  -35.0577 C   0  0  0  0  0  0  0  0  0  0  0  0
  -17.5582  -24.0181  -38.3811 C   0  0  0  0  0  0  0  0  0  0  0  0
  -10.2628  -25.6106  -34.6132 C   0  0  0  0  0  0  0  0  0  0  0  0
   -5.1433  -29.2201  -33.9485 C   0  0  0  0  0  0  0  0  0  0  0  0
   -5.4997  -30.5582  -34.1211 C   0  0  0  0  0  0  0  0  0  0  0  0
  -12.2022  -25.6147  -36.0541 C   0  0  0  0  0  0  0  0  0  0  0  0
  -16.2652  -24.4202  -38.7154 C   0  0  0  0  0  0  0  0  0  0  0  0
   -9.8503  -26.8234  -35.1652 C   0  0  0  0  0  0  0  0  0  0  0  0
  -18.2544  -24.3534  -40.6702 C   0  0  0  0  0  0  0  0  0  0  0  0
  -18.5529  -23.9846  -39.3584 C   0  0  0  0  0  0  0  0  0  0  0  0
   -7.0934  -29.1834  -34.7991 C   0  0  0  0  0  0  0  0  0  0  0  0
   -7.5712  -31.6119  -35.0380 C   0  0  0  0  0  0  0  0  0  0  0  0
  -14.1418  -25.3064  -37.6546 C   0  0  0  0  0  0  0  0  0  0  0  0
   -9.4580  -24.9454  -33.5459 C   0  0  0  0  0  0  0  0  0  0  0  0
   -8.2865  -34.2596  -36.0687 C   0  0  0  0  0  0  0  0  0  0  0  0
   -6.8952  -35.0744  -34.1426 C   0  0  0  0  0  0  0  0  0  0  0  0
   -8.9015  -33.6262  -33.7117 C   0  0  0  0  0  0  0  0  0  0  0  0
   -8.3711  -28.6764  -35.3506 C   0  0  0  0  0  0  0  0  0  0  0  0
   -7.7547  -33.9296  -34.6748 C   0  0  0  0  0  0  0  0  0  0  0  0
   -6.1419  -28.3864  -34.3741 N   0  0  0  0  0  0  0  0  0  0  0  0
   -6.7734  -30.5207  -34.6761 N   0  0  0  0  0  0  0  0  0  0  0  0
  -13.3785  -25.0105  -36.4989 N   0  0  0  0  0  0  0  0  0  0  0  0
  -15.2561  -24.4548  -37.7242 N   0  0  0  0  0  0  0  0  0  0  0  0
   -8.6809  -31.4559  -35.5200 O   0  0  0  0  0  0  0  0  0  0  0  0
  -13.8641  -26.1796  -38.4704 O   0  0  0  0  0  0  0  0  0  0  0  0
   -8.6992  -27.4300  -34.7411 O   0  0  0  0  0  0  0  0  0  0  0  0
   -6.9199  -32.7715  -34.7684 O   0  0  0  0  0  0  0  0  0  0  0  0
  -19.4418  -24.3302  -41.9263 Cl  0  0  0  0  0  0  0  0  0  0  0  0
  -20.1352  -23.4754  -38.8831 Cl  0  0  0  0  0  0  0  0  0  0  0  0
   -2.0549  -29.6954  -32.6071 H   0  0  0  0  0  0  0  0  0  0  0  0
   -2.7071  -32.0538  -32.9226 H   0  0  0  0  0  0  0  0  0  0  0  0
   -3.5955  -27.8610  -33.2560 H   0  0  0  0  0  0  0  0  0  0  0  0
   -4.9018  -32.6469  -33.8872 H   0  0  0  0  0  0  0  0  0  0  0  0
  -12.3765  -27.3107  -37.3831 H   0  0  0  0  0  0  0  0  0  0  0  0
  -14.9627  -25.1053  -40.2980 H   0  0  0  0  0  0  0  0  0  0  0  0
  -10.2978  -28.3765  -36.5959 H   0  0  0  0  0  0  0  0  0  0  0  0
  -16.7111  -25.0477  -42.0214 H   0  0  0  0  0  0  0  0  0  0  0  0
  -11.7593  -24.0605  -34.6263 H   0  0  0  0  0  0  0  0  0  0  0  0
  -17.7847  -23.7304  -37.3563 H   0  0  0  0  0  0  0  0  0  0  0  0
   -8.4090  -24.8660  -33.8546 H   0  0  0  0  0  0  0  0  0  0  0  0
   -9.8367  -23.9380  -33.3332 H   0  0  0  0  0  0  0  0  0  0  0  0
   -9.5038  -25.5086  -32.6054 H   0  0  0  0  0  0  0  0  0  0  0  0
   -8.6849  -35.2798  -36.1023 H   0  0  0  0  0  0  0  0  0  0  0  0
   -9.0781  -33.5669  -36.3729 H   0  0  0  0  0  0  0  0  0  0  0  0
   -7.4838  -34.2165  -36.8138 H   0  0  0  0  0  0  0  0  0  0  0  0
   -7.4648  -36.0103  -34.1163 H   0  0  0  0  0  0  0  0  0  0  0  0
   -6.5773  -34.8774  -33.1124 H   0  0  0  0  0  0  0  0  0  0  0  0
   -6.0025  -35.2289  -34.7573 H   0  0  0  0  0  0  0  0  0  0  0  0
   -9.3690  -34.5517  -33.3564 H   0  0  0  0  0  0  0  0  0  0  0  0
   -8.5578  -33.0566  -32.8421 H   0  0  0  0  0  0  0  0  0  0  0  0
   -9.6904  -33.0540  -34.2131 H   0  0  0  0  0  0  0  0  0  0  0  0
   -8.3158  -28.5219  -36.4407 H   0  0  0  0  0  0  0  0  0  0  0  0
   -9.2005  -29.3794  -35.1683 H   0  0  0  0  0  0  0  0  0  0  0  0
  -13.7382  -24.2512  -35.9109 H   0  0  0  0  0  0  0  0  0  0  0  0
  -15.3558  -23.7767  -36.9731 H   0  0  0  0  0  0  0  0  0  0  0  0
  1  2  2  0  0  0  0
  1  3  1  0  0  0  0
  2  4  1  0  0  0  0
  3 12  2  0  0  0  0
  4 13  2  0  0  0  0
  5  7  2  0  0  0  0
  5 14  1  0  0  0  0
  6  8  1  0  0  0  0
  6 15  2  0  0  0  0
  7 16  1  0  0  0  0
  8 17  2  0  0  0  0
  9 11  1  0  0  0  0
  9 14  2  0  0  0  0
 10 15  1  0  0  0  0
 10 18  2  0  0  0  0
 11 16  2  0  0  0  0
 11 22  1  0  0  0  0
 12 13  1  0  0  0  0
 12 28  1  0  0  0  0
 13 29  1  0  0  0  0
 14 30  1  0  0  0  0
 15 31  1  0  0  0  0
 16 34  1  0  0  0  0
 17 18  1  0  0  0  0
 17 36  1  0  0  0  0
 18 37  1  0  0  0  0
 19 26  1  0  0  0  0
 19 28  2  0  0  0  0
 19 29  1  0  0  0  0
 20 29  1  0  0  0  0
 20 32  2  0  0  0  0
 20 35  1  0  0  0  0
 21 30  1  0  0  0  0
 21 31  1  0  0  0  0
 21 33  2  0  0  0  0
 23 27  1  0  0  0  0
 24 27  1  0  0  0  0
 25 27  1  0  0  0  0
 26 34  1  0  0  0  0
 27 35  1  0  0  0  0
  1 38  1  0  0  0  0
  2 39  1  0  0  0  0
  3 40  1  0  0  0  0
  4 41  1  0  0  0  0
  5 42  1  0  0  0  0
  6 43  1  0  0  0  0
  7 44  1  0  0  0  0
  8 45  1  0  0  0  0
  9 46  1  0  0  0  0
 10 47  1  0  0  0  0
 22 48  1  0  0  0  0
 22 49  1  0  0  0  0
 22 50  1  0  0  0  0
 23 51  1  0  0  0  0
 23 52  1  0  0  0  0
 23 53  1  0  0  0  0
 24 54  1  0  0  0  0
 24 55  1  0  0  0  0
 24 56  1  0  0  0  0
 25 57  1  0  0  0  0
 25 58  1  0  0  0  0
 25 59  1  0  0  0  0
 26 60  1  0  0  0  0
 26 61  1  0  0  0  0
 30 62  1  0  0  0  0
 31 63  1  0  0  0  0
M  END
> <Clean Energy>
84.5744

> <SourceTag>
Livi_174a

> <Activity_FLAP>
100

> <Activity_sEH>
0.7

> <Gold.Version>
5.2

> <Gold.Id.Protein>
6HGV|6HGV_protein|mol2

> <Gold.Goldscore.Fitness>
78.2578

> <Gold.Goldscore.Internal.Vdw>
-22.5034

> <Gold.Goldscore.Internal.Torsion>
-5.6427

> <Gold.Goldscore.External.Vdw>
60.1285

> <Gold.Goldscore.Internal.HBond>
0.0000

> <Gold.Goldscore.External.HBond>
4.6367

> <Gold.Goldscore.Internal.Correction>
-19.0905

> <Gold.Goldscore.Hbonds>
donor molecule, donor type, donor heavy atom, donor atom, acceptor molecule, acceptor atom, score
      L1  H    30    62       P1   853  0.72
      L1  H    31    63       P1   853  0.05

> <Gold.Goldscore.Internal.Vdw.Weighted>
-22.5034

> <Gold.Goldscore.Internal.Torsion.Weighted>
-5.6427

> <Gold.Goldscore.External.Vdw.Weighted>
82.6767

> <Gold.Goldscore.Internal.HBond.Weighted>
0.0000

> <Gold.Goldscore.External.HBond.Weighted>
4.6367

> <Gold.Goldscore.Internal.Correction.Weighted>
-19.0905

> <Gold.Protein.RotatedTorsions>
[ 3781 1176 1175 1172 ] final  -51.75 input   60.00 | X-H torsion
[ 3847 1247 1246 1244 ] final  -88.94 input   60.00 | X-H torsion
[ 4507 1931 1930 1928 ] final  125.99 input   60.00 | X-H torsion
[ 3677 1070 1069 1066 ] final  -99.73 input   60.00 | X-H torsion
[ 3525  925  924  922 ] final  -17.73 input   59.99 | X-H torsion
[ 4531 1957 1955 1953 ] final    9.32 input   60.00 | X-H torsion

> <Gold.Protein.ActiveResidues>
 PHE267  PRO268  MET310  ASP335  TRP336  MET339  TYR343  THR360  PRO361  ILE363 
 PRO371  SER374  ILE375  ASN378  PHE381  TYR383  GLN384  PHE387  LEU408  LEU417 
 MET419  LEU428  TYR466  MET469  ASN472  ASP496  VAL498  LEU499  MET503  HIS524 
 TRP525 

> <Gold.Protein.RotatedAtoms>
   -3.7231  -29.5146  -30.2179 H   0  0  0  0  0  0  0  0  0  0  0  0  # atno 3525 bound_to 925 
  -11.7389  -23.7556  -31.4158 H   0  0  0  0  0  0  0  0  0  0  0  0  # atno 3677 bound_to 1070
  -10.3404  -36.7537  -34.1417 H   0  0  0  0  0  0  0  0  0  0  0  0  # atno 3781 bound_to 1176
  -15.9070  -27.4815  -37.4505 H   0  0  0  0  0  0  0  0  0  0  0  0  # atno 3847 bound_to 1247
  -12.4631  -23.8879  -39.4412 H   0  0  0  0  0  0  0  0  0  0  0  0  # atno 4507 bound_to 1931
   -2.9486  -32.6211  -36.6737 H   0  0  0  0  0  0  0  0  0  0  0  0  # atno 4531 bound_to 1957
   -9.2445  -36.4561  -32.9761 LP  0  0  0  0  0  0  0  0  0  0  0  0  # atno 5205 bound_to 1176
  -10.5237  -37.4241  -32.6703 LP  0  0  0  0  0  0  0  0  0  0  0  0  # atno 5206 bound_to 1176
  -14.3843  -27.8146  -37.9180 LP  0  0  0  0  0  0  0  0  0  0  0  0  # atno 5215 bound_to 1247
  -15.2680  -28.9452  -37.1387 LP  0  0  0  0  0  0  0  0  0  0  0  0  # atno 5216 bound_to 1247
  -13.1956  -25.2780  -39.0182 LP  0  0  0  0  0  0  0  0  0  0  0  0  # atno 5217 bound_to 1931
  -13.5403  -24.5730  -40.4503 LP  0  0  0  0  0  0  0  0  0  0  0  0  # atno 5218 bound_to 1931
  -11.3306  -22.3079  -30.7950 LP  0  0  0  0  0  0  0  0  0  0  0  0  # atno 5224 bound_to 1070
  -12.7861  -22.9647  -30.4535 LP  0  0  0  0  0  0  0  0  0  0  0  0  # atno 5225 bound_to 1070

$$$$
Molecule1_Diflapolin|Lisa_paper2_min|sdf|11|dock3
  -GOLD-  10182017113D 1   1.00000     0.00000

 47 50  0  0  0  0  0  0  0  0  1 V2000
  -20.4819  -23.6417  -37.5981 C   0  0  0  0  0  0  0  0  0  0  0  0
  -20.7392  -24.0899  -36.3072 C   0  0  0  0  0  0  0  0  0  0  0  0
  -19.2192  -23.8161  -38.1722 C   0  0  0  0  0  0  0  0  0  0  0  0
  -10.8781  -26.8123  -36.3997 C   0  0  0  0  0  0  0  0  0  0  0  0
   -5.0997  -29.3798  -33.9514 C   0  0  0  0  0  0  0  0  0  0  0  0
  -12.1402  -26.3151  -36.7245 C   0  0  0  0  0  0  0  0  0  0  0  0
  -19.7449  -24.7225  -35.5566 C   0  0  0  0  0  0  0  0  0  0  0  0
   -4.2691  -30.5001  -33.9312 C   0  0  0  0  0  0  0  0  0  0  0  0
  -12.1116  -24.9429  -34.7362 C   0  0  0  0  0  0  0  0  0  0  0  0
   -6.7060  -30.5947  -35.2859 C   0  0  0  0  0  0  0  0  0  0  0  0
  -10.8495  -25.4401  -34.4113 C   0  0  0  0  0  0  0  0  0  0  0  0
  -18.1966  -24.4521  -37.4356 C   0  0  0  0  0  0  0  0  0  0  0  0
   -6.3182  -29.4271  -34.6288 C   0  0  0  0  0  0  0  0  0  0  0  0
  -10.2327  -26.3748  -35.2430 C   0  0  0  0  0  0  0  0  0  0  0  0
  -12.7570  -25.3805  -35.8929 C   0  0  0  0  0  0  0  0  0  0  0  0
  -18.4790  -24.8941  -36.1394 C   0  0  0  0  0  0  0  0  0  0  0  0
   -4.6569  -31.6677  -34.5882 C   0  0  0  0  0  0  0  0  0  0  0  0
   -5.8754  -31.7151  -35.2656 C   0  0  0  0  0  0  0  0  0  0  0  0
  -16.2256  -25.3026  -36.9270 C   0  0  0  0  0  0  0  0  0  0  0  0
   -8.4936  -28.2102  -35.0827 C   0  0  0  0  0  0  0  0  0  0  0  0
  -10.1822  -24.9535  -33.1660 C   0  0  0  0  0  0  0  0  0  0  0  0
  -14.8098  -25.7135  -37.0464 C   0  0  0  0  0  0  0  0  0  0  0  0
  -16.9021  -24.6930  -37.8722 N   0  0  0  0  0  0  0  0  0  0  0  0
   -7.1608  -28.2905  -34.6485 N   0  0  0  0  0  0  0  0  0  0  0  0
   -8.9699  -26.8859  -34.9337 N   0  0  0  0  0  0  0  0  0  0  0  0
   -9.1528  -29.1449  -35.5260 O   0  0  0  0  0  0  0  0  0  0  0  0
  -13.9947  -24.8924  -36.2120 O   0  0  0  0  0  0  0  0  0  0  0  0
  -17.0674  -25.6271  -35.4738 S   0  0  0  0  0  0  0  0  0  0  0  0
   -3.5827  -33.0209  -34.5292 Cl  0  0  0  0  0  0  0  0  0  0  0  0
   -6.4100  -33.1318  -36.1001 Cl  0  0  0  0  0  0  0  0  0  0  0  0
  -21.2676  -23.1518  -38.1666 H   0  0  0  0  0  0  0  0  0  0  0  0
  -21.7260  -23.9469  -35.8748 H   0  0  0  0  0  0  0  0  0  0  0  0
  -19.0298  -23.4629  -39.1819 H   0  0  0  0  0  0  0  0  0  0  0  0
  -10.4077  -27.5412  -37.0550 H   0  0  0  0  0  0  0  0  0  0  0  0
   -4.7887  -28.4753  -33.4349 H   0  0  0  0  0  0  0  0  0  0  0  0
  -12.6376  -26.6595  -37.6272 H   0  0  0  0  0  0  0  0  0  0  0  0
  -19.9536  -25.0708  -34.5497 H   0  0  0  0  0  0  0  0  0  0  0  0
   -3.3237  -30.4458  -33.3970 H   0  0  0  0  0  0  0  0  0  0  0  0
  -12.5953  -24.2146  -34.0897 H   0  0  0  0  0  0  0  0  0  0  0  0
   -7.6572  -30.6251  -35.8137 H   0  0  0  0  0  0  0  0  0  0  0  0
   -9.8057  -25.8008  -32.5819 H   0  0  0  0  0  0  0  0  0  0  0  0
   -9.3417  -24.2893  -33.4012 H   0  0  0  0  0  0  0  0  0  0  0  0
  -10.8785  -24.3798  -32.5424 H   0  0  0  0  0  0  0  0  0  0  0  0
  -14.6577  -26.7641  -36.7461 H   0  0  0  0  0  0  0  0  0  0  0  0
  -14.4432  -25.6223  -38.0829 H   0  0  0  0  0  0  0  0  0  0  0  0
   -6.7505  -27.4254  -34.3060 H   0  0  0  0  0  0  0  0  0  0  0  0
   -8.2909  -26.2224  -34.5480 H   0  0  0  0  0  0  0  0  0  0  0  0
  1  2  2  0  0  0  0
  1  3  1  0  0  0  0
  2  7  1  0  0  0  0
  3 12  2  0  0  0  0
  4  6  2  0  0  0  0
  4 14  1  0  0  0  0
  5  8  2  0  0  0  0
  5 13  1  0  0  0  0
  6 15  1  0  0  0  0
  7 16  2  0  0  0  0
  8 17  1  0  0  0  0
  9 11  1  0  0  0  0
  9 15  2  0  0  0  0
 10 13  2  0  0  0  0
 10 18  1  0  0  0  0
 11 14  2  0  0  0  0
 11 21  1  0  0  0  0
 12 16  1  0  0  0  0
 12 23  1  0  0  0  0
 13 24  1  0  0  0  0
 14 25  1  0  0  0  0
 15 27  1  0  0  0  0
 16 28  1  0  0  0  0
 17 18  2  0  0  0  0
 17 29  1  0  0  0  0
 18 30  1  0  0  0  0
 19 22  1  0  0  0  0
 19 23  2  0  0  0  0
 19 28  1  0  0  0  0
 20 24  1  0  0  0  0
 20 25  1  0  0  0  0
 20 26  2  0  0  0  0
 22 27  1  0  0  0  0
  1 31  1  0  0  0  0
  2 32  1  0  0  0  0
  3 33  1  0  0  0  0
  4 34  1  0  0  0  0
  5 35  1  0  0  0  0
  6 36  1  0  0  0  0
  7 37  1  0  0  0  0
  8 38  1  0  0  0  0
  9 39  1  0  0  0  0
 10 40  1  0  0  0  0
 21 41  1  0  0  0  0
 21 42  1  0  0  0  0
 21 43  1  0  0  0  0
 22 44  1  0  0  0  0
 22 45  1  0  0  0  0
 24 46  1  0  0  0  0
 25 47  1  0  0  0  0
M  END
> <Name>
Molecule1_Diflapolin

> <SourceTag>
Molecule1_Diflapolin

> <Activity_sEH>
23

> <Activity_FLAP>
0.23

> <Gold.Version>
5.2

> <Gold.Id.Protein>
6HGV|6HGV_protein|mol2

> <Gold.Goldscore.Fitness>
84.0411

> <Gold.Goldscore.Internal.Vdw>
-9.0582

> <Gold.Goldscore.Internal.Torsion>
-5.0906

> <Gold.Goldscore.External.Vdw>
63.1682

> <Gold.Goldscore.Internal.HBond>
0.0000

> <Gold.Goldscore.External.HBond>
0.0000

> <Gold.Goldscore.Internal.Correction>
-11.3336

> <Gold.Goldscore.Internal.Vdw.Weighted>
-9.0582

> <Gold.Goldscore.Internal.Torsion.Weighted>
-5.0906

> <Gold.Goldscore.External.Vdw.Weighted>
86.8563

> <Gold.Goldscore.Internal.HBond.Weighted>
0.0000

> <Gold.Goldscore.External.HBond.Weighted>
0.0000

> <Gold.Goldscore.Internal.Correction.Weighted>
-11.3336

> <Gold.Protein.RotatedTorsions>
[ 3781 1176 1175 1172 ] final -174.70 input   60.00 | X-H torsion
[ 3847 1247 1246 1244 ] final   53.86 input   60.00 | X-H torsion
[ 4507 1931 1930 1928 ] final   76.10 input   60.00 | X-H torsion
[ 3677 1070 1069 1066 ] final  -34.23 input   60.00 | X-H torsion
[ 3525  925  924  922 ] final    7.21 input   59.99 | X-H torsion
[ 4531 1957 1955 1953 ] final  -89.77 input   60.00 | X-H torsion

> <Gold.Protein.ActiveResidues>
 PHE267  PRO268  MET310  ASP335  TRP336  MET339  TYR343  THR360  PRO361  ILE363 
 PRO371  SER374  ILE375  ASN378  PHE381  TYR383  GLN384  PHE387  LEU408  LEU417 
 MET419  LEU428  TYR466  MET469  ASN472  ASP496  VAL498  LEU499  MET503  HIS524 
 TRP525 

> <Gold.Protein.RotatedAtoms>
   -3.5265  -29.5683  -30.5672 H   0  0  0  0  0  0  0  0  0  0  0  0  # atno 3525 bound_to 925 
  -12.6222  -23.6630  -30.9288 H   0  0  0  0  0  0  0  0  0  0  0  0  # atno 3677 bound_to 1070
   -9.2551  -36.4814  -32.9357 H   0  0  0  0  0  0  0  0  0  0  0  0  # atno 3781 bound_to 1176
  -14.9228  -28.9478  -37.2759 H   0  0  0  0  0  0  0  0  0  0  0  0  # atno 3847 bound_to 1247
  -12.5257  -24.4428  -38.8828 H   0  0  0  0  0  0  0  0  0  0  0  0  # atno 4507 bound_to 1931
   -1.5600  -32.4369  -36.9345 H   0  0  0  0  0  0  0  0  0  0  0  0  # atno 4531 bound_to 1957
  -10.5556  -37.4321  -32.7059 LP  0  0  0  0  0  0  0  0  0  0  0  0  # atno 5205 bound_to 1176
  -10.3054  -36.7224  -34.1551 LP  0  0  0  0  0  0  0  0  0  0  0  0  # atno 5206 bound_to 1176
  -16.0524  -27.7766  -37.2778 LP  0  0  0  0  0  0  0  0  0  0  0  0  # atno 5215 bound_to 1247
  -14.5911  -27.5066  -37.9547 LP  0  0  0  0  0  0  0  0  0  0  0  0  # atno 5216 bound_to 1247
  -13.6261  -25.3341  -39.6845 LP  0  0  0  0  0  0  0  0  0  0  0  0  # atno 5217 bound_to 1931
  -13.0468  -23.9582  -40.3462 LP  0  0  0  0  0  0  0  0  0  0  0  0  # atno 5218 bound_to 1931
  -11.1436  -23.1370  -31.3591 LP  0  0  0  0  0  0  0  0  0  0  0  0  # atno 5224 bound_to 1070
  -12.0835  -22.2289  -30.3799 LP  0  0  0  0  0  0  0  0  0  0  0  0  # atno 5225 bound_to 1070

$$$$
Molecule1_Diflapolin|Lisa_paper2_min|sdf|11|dock5
  -GOLD-  10182017113D 1   1.00000     0.00000

 47 50  0  0  0  0  0  0  0  0  1 V2000
  -20.4496  -23.3091  -37.4179 C   0  0  0  0  0  0  0  0  0  0  0  0
  -20.7430  -24.0059  -36.2509 C   0  0  0  0  0  0  0  0  0  0  0  0
  -19.1723  -23.3746  -37.9824 C   0  0  0  0  0  0  0  0  0  0  0  0
  -10.8654  -26.6287  -36.5092 C   0  0  0  0  0  0  0  0  0  0  0  0
   -5.0956  -29.3410  -34.2541 C   0  0  0  0  0  0  0  0  0  0  0  0
  -12.1123  -26.0989  -36.8410 C   0  0  0  0  0  0  0  0  0  0  0  0
  -19.7711  -24.7846  -35.6175 C   0  0  0  0  0  0  0  0  0  0  0  0
   -4.2706  -30.4650  -34.2911 C   0  0  0  0  0  0  0  0  0  0  0  0
  -12.1525  -24.8852  -34.7523 C   0  0  0  0  0  0  0  0  0  0  0  0
   -6.8505  -30.5930  -35.3448 C   0  0  0  0  0  0  0  0  0  0  0  0
  -10.9056  -25.4151  -34.4205 C   0  0  0  0  0  0  0  0  0  0  0  0
  -18.1718  -24.1541  -37.3626 C   0  0  0  0  0  0  0  0  0  0  0  0
   -6.3856  -29.4049  -34.7809 C   0  0  0  0  0  0  0  0  0  0  0  0
  -10.2620  -26.2869  -35.2988 C   0  0  0  0  0  0  0  0  0  0  0  0
  -12.7559  -25.2272  -35.9626 C   0  0  0  0  0  0  0  0  0  0  0  0
  -18.4903  -24.8457  -36.1899 C   0  0  0  0  0  0  0  0  0  0  0  0
   -4.7355  -31.6530  -34.8550 C   0  0  0  0  0  0  0  0  0  0  0  0
   -6.0256  -31.7170  -35.3819 C   0  0  0  0  0  0  0  0  0  0  0  0
  -16.2176  -25.1055  -36.9848 C   0  0  0  0  0  0  0  0  0  0  0  0
   -8.5374  -28.1411  -35.2187 C   0  0  0  0  0  0  0  0  0  0  0  0
  -10.2834  -25.0313  -33.1173 C   0  0  0  0  0  0  0  0  0  0  0  0
  -14.8002  -25.4955  -37.1477 C   0  0  0  0  0  0  0  0  0  0  0  0
  -16.8666  -24.3127  -37.8051 N   0  0  0  0  0  0  0  0  0  0  0  0
   -7.2224  -28.2646  -34.7424 N   0  0  0  0  0  0  0  0  0  0  0  0
   -9.0139  -26.8295  -34.9836 N   0  0  0  0  0  0  0  0  0  0  0  0
   -9.1829  -29.0335  -35.7591 O   0  0  0  0  0  0  0  0  0  0  0  0
  -13.9787  -24.7070  -36.2885 O   0  0  0  0  0  0  0  0  0  0  0  0
  -17.0993  -25.7091  -35.6491 S   0  0  0  0  0  0  0  0  0  0  0  0
   -3.6645  -33.0098  -34.8739 Cl  0  0  0  0  0  0  0  0  0  0  0  0
   -6.6576  -33.1594  -36.0955 Cl  0  0  0  0  0  0  0  0  0  0  0  0
  -21.2184  -22.7085  -37.8963 H   0  0  0  0  0  0  0  0  0  0  0  0
  -21.7407  -23.9448  -35.8243 H   0  0  0  0  0  0  0  0  0  0  0  0
  -18.9547  -22.8270  -38.8949 H   0  0  0  0  0  0  0  0  0  0  0  0
  -10.3739  -27.3080  -37.2013 H   0  0  0  0  0  0  0  0  0  0  0  0
   -4.7240  -28.4205  -33.8110 H   0  0  0  0  0  0  0  0  0  0  0  0
  -12.5769  -26.3687  -37.7855 H   0  0  0  0  0  0  0  0  0  0  0  0
  -20.0080  -25.3268  -34.7072 H   0  0  0  0  0  0  0  0  0  0  0  0
   -3.2687  -30.3974  -33.8745 H   0  0  0  0  0  0  0  0  0  0  0  0
  -12.6570  -24.2058  -34.0695 H   0  0  0  0  0  0  0  0  0  0  0  0
   -7.8574  -30.6364  -35.7553 H   0  0  0  0  0  0  0  0  0  0  0  0
  -10.9985  -24.4678  -32.5072 H   0  0  0  0  0  0  0  0  0  0  0  0
   -9.9650  -25.9173  -32.5547 H   0  0  0  0  0  0  0  0  0  0  0  0
   -9.3910  -24.4128  -33.2720 H   0  0  0  0  0  0  0  0  0  0  0  0
  -14.6328  -26.5577  -36.9010 H   0  0  0  0  0  0  0  0  0  0  0  0
  -14.4525  -25.3508  -38.1846 H   0  0  0  0  0  0  0  0  0  0  0  0
   -6.8221  -27.4320  -34.3174 H   0  0  0  0  0  0  0  0  0  0  0  0
   -8.3475  -26.2031  -34.5214 H   0  0  0  0  0  0  0  0  0  0  0  0
  1  2  2  0  0  0  0
  1  3  1  0  0  0  0
  2  7  1  0  0  0  0
  3 12  2  0  0  0  0
  4  6  2  0  0  0  0
  4 14  1  0  0  0  0
  5  8  2  0  0  0  0
  5 13  1  0  0  0  0
  6 15  1  0  0  0  0
  7 16  2  0  0  0  0
  8 17  1  0  0  0  0
  9 11  1  0  0  0  0
  9 15  2  0  0  0  0
 10 13  2  0  0  0  0
 10 18  1  0  0  0  0
 11 14  2  0  0  0  0
 11 21  1  0  0  0  0
 12 16  1  0  0  0  0
 12 23  1  0  0  0  0
 13 24  1  0  0  0  0
 14 25  1  0  0  0  0
 15 27  1  0  0  0  0
 16 28  1  0  0  0  0
 17 18  2  0  0  0  0
 17 29  1  0  0  0  0
 18 30  1  0  0  0  0
 19 22  1  0  0  0  0
 19 23  2  0  0  0  0
 19 28  1  0  0  0  0
 20 24  1  0  0  0  0
 20 25  1  0  0  0  0
 20 26  2  0  0  0  0
 22 27  1  0  0  0  0
  1 31  1  0  0  0  0
  2 32  1  0  0  0  0
  3 33  1  0  0  0  0
  4 34  1  0  0  0  0
  5 35  1  0  0  0  0
  6 36  1  0  0  0  0
  7 37  1  0  0  0  0
  8 38  1  0  0  0  0
  9 39  1  0  0  0  0
 10 40  1  0  0  0  0
 21 41  1  0  0  0  0
 21 42  1  0  0  0  0
 21 43  1  0  0  0  0
 22 44  1  0  0  0  0
 22 45  1  0  0  0  0
 24 46  1  0  0  0  0
 25 47  1  0  0  0  0
M  END
> <Name>
Molecule1_Diflapolin

> <SourceTag>
Molecule1_Diflapolin

> <Activity_sEH>
23

> <Activity_FLAP>
0.23

> <Gold.Version>
5.2

> <Gold.Id.Protein>
6HGV|6HGV_protein|mol2

> <Gold.Goldscore.Fitness>
83.0854

> <Gold.Goldscore.Internal.Vdw>
-9.6666

> <Gold.Goldscore.Internal.Torsion>
-5.2227

> <Gold.Goldscore.External.Vdw>
63.9049

> <Gold.Goldscore.Internal.HBond>
0.0000

> <Gold.Goldscore.External.HBond>
0.0000

> <Gold.Goldscore.Internal.Correction>
-10.1055

> <Gold.Goldscore.Internal.Vdw.Weighted>
-9.6666

> <Gold.Goldscore.Internal.Torsion.Weighted>
-5.2227

> <Gold.Goldscore.External.Vdw.Weighted>
87.8692

> <Gold.Goldscore.Internal.HBond.Weighted>
0.0000

> <Gold.Goldscore.External.HBond.Weighted>
0.0000

> <Gold.Goldscore.Internal.Correction.Weighted>
-10.1055

> <Gold.Protein.RotatedTorsions>
[ 3781 1176 1175 1172 ] final  -93.80 input   60.00 | X-H torsion
[ 3847 1247 1246 1244 ] final   -6.26 input   60.00 | X-H torsion
[ 4507 1931 1930 1928 ] final -176.93 input   60.00 | X-H torsion
[ 3677 1070 1069 1066 ] final  149.83 input   60.00 | X-H torsion
[ 3525  925  924  922 ] final   12.54 input   59.99 | X-H torsion
[ 4531 1957 1955 1953 ] final  -73.39 input   60.00 | X-H torsion

> <Gold.Protein.ActiveResidues>
 PHE267  PRO268  MET310  ASP335  TRP336  MET339  TYR343  THR360  PRO361  ILE363 
 PRO371  SER374  ILE375  ASN378  PHE381  TYR383  GLN384  PHE387  LEU408  LEU417 
 MET419  LEU428  TYR466  MET469  ASN472  ASP496  VAL498  LEU499  MET503  HIS524 
 TRP525 

> <Gold.Protein.RotatedAtoms>
   -3.4679  -29.5882  -30.6285 H   0  0  0  0  0  0  0  0  0  0  0  0  # atno 3525 bound_to 925 
  -11.2427  -22.3993  -30.8873 H   0  0  0  0  0  0  0  0  0  0  0  0  # atno 3677 bound_to 1070
   -9.7709  -36.4143  -34.0336 H   0  0  0  0  0  0  0  0  0  0  0  0  # atno 3781 bound_to 1176
  -15.7827  -28.6463  -37.0537 H   0  0  0  0  0  0  0  0  0  0  0  0  # atno 3847 bound_to 1247
  -12.9032  -23.8641  -40.2197 H   0  0  0  0  0  0  0  0  0  0  0  0  # atno 4507 bound_to 1931
   -1.7769  -32.2881  -36.8907 H   0  0  0  0  0  0  0  0  0  0  0  0  # atno 4531 bound_to 1957
   -9.5181  -36.8248  -32.4793 LP  0  0  0  0  0  0  0  0  0  0  0  0  # atno 5205 bound_to 1176
  -10.8235  -37.3973  -33.2760 LP  0  0  0  0  0  0  0  0  0  0  0  0  # atno 5206 bound_to 1176
  -15.4538  -27.2040  -37.7318 LP  0  0  0  0  0  0  0  0  0  0  0  0  # atno 5215 bound_to 1247
  -14.3237  -28.3828  -37.7245 LP  0  0  0  0  0  0  0  0  0  0  0  0  # atno 5216 bound_to 1247
  -12.6129  -24.6232  -38.8099 LP  0  0  0  0  0  0  0  0  0  0  0  0  # atno 5217 bound_to 1931
  -13.6798  -25.2518  -39.8745 LP  0  0  0  0  0  0  0  0  0  0  0  0  # atno 5218 bound_to 1931
  -12.7354  -22.8262  -30.3995 LP  0  0  0  0  0  0  0  0  0  0  0  0  # atno 5224 bound_to 1070
  -11.8809  -23.8124  -31.3813 LP  0  0  0  0  0  0  0  0  0  0  0  0  # atno 5225 bound_to 1070

$$$$
Molecule1_Diflapolin|Lisa_paper2_min|sdf|11|dock7
  -GOLD-  10182017123D 1   1.00000     0.00000

 47 50  0  0  0  0  0  0  0  0  1 V2000
  -20.7108  -23.1777  -37.5502 C   0  0  0  0  0  0  0  0  0  0  0  0
  -20.9988  -23.8867  -36.3892 C   0  0  0  0  0  0  0  0  0  0  0  0
  -19.4361  -23.2371  -38.1210 C   0  0  0  0  0  0  0  0  0  0  0  0
  -11.2169  -26.7104  -36.6213 C   0  0  0  0  0  0  0  0  0  0  0  0
   -5.4177  -29.5166  -34.8901 C   0  0  0  0  0  0  0  0  0  0  0  0
  -12.4402  -26.1270  -36.9514 C   0  0  0  0  0  0  0  0  0  0  0  0
  -20.0241  -24.6719  -35.7684 C   0  0  0  0  0  0  0  0  0  0  0  0
   -4.6092  -30.6475  -35.0037 C   0  0  0  0  0  0  0  0  0  0  0  0
  -12.4295  -24.9201  -34.8585 C   0  0  0  0  0  0  0  0  0  0  0  0
   -7.3739  -30.8739  -35.2998 C   0  0  0  0  0  0  0  0  0  0  0  0
  -11.2063  -25.5035  -34.5283 C   0  0  0  0  0  0  0  0  0  0  0  0
  -18.4327  -24.0230  -37.5140 C   0  0  0  0  0  0  0  0  0  0  0  0
   -6.8001  -29.6298  -35.0381 C   0  0  0  0  0  0  0  0  0  0  0  0
  -10.6000  -26.3987  -35.4097 C   0  0  0  0  0  0  0  0  0  0  0  0
  -13.0465  -25.2319  -36.0701 C   0  0  0  0  0  0  0  0  0  0  0  0
  -18.7458  -24.7269  -36.3471 C   0  0  0  0  0  0  0  0  0  0  0  0
   -5.1830  -31.8916  -35.2653 C   0  0  0  0  0  0  0  0  0  0  0  0
   -6.5654  -32.0048  -35.4134 C   0  0  0  0  0  0  0  0  0  0  0  0
  -16.4767  -24.9780  -37.1550 C   0  0  0  0  0  0  0  0  0  0  0  0
   -8.9098  -28.2859  -35.4406 C   0  0  0  0  0  0  0  0  0  0  0  0
  -10.5688  -25.1511  -33.2236 C   0  0  0  0  0  0  0  0  0  0  0  0
  -15.0600  -25.3661  -37.3283 C   0  0  0  0  0  0  0  0  0  0  0  0
  -17.1295  -24.1768  -37.9640 N   0  0  0  0  0  0  0  0  0  0  0  0
   -7.6199  -28.4824  -34.9220 N   0  0  0  0  0  0  0  0  0  0  0  0
   -9.3760  -26.9949  -35.0962 N   0  0  0  0  0  0  0  0  0  0  0  0
   -9.5439  -29.1069  -36.0955 O   0  0  0  0  0  0  0  0  0  0  0  0
  -14.2460  -24.6591  -36.3943 O   0  0  0  0  0  0  0  0  0  0  0  0
  -17.3523  -25.5957  -35.8216 S   0  0  0  0  0  0  0  0  0  0  0  0
   -4.1277  -33.2543  -35.3980 Cl  0  0  0  0  0  0  0  0  0  0  0  0
   -7.3350  -33.5181  -35.7406 Cl  0  0  0  0  0  0  0  0  0  0  0  0
  -21.4817  -22.5722  -38.0187 H   0  0  0  0  0  0  0  0  0  0  0  0
  -21.9946  -23.8303  -35.9574 H   0  0  0  0  0  0  0  0  0  0  0  0
  -19.2225  -22.6800  -39.0288 H   0  0  0  0  0  0  0  0  0  0  0  0
  -10.7544  -27.4074  -37.3158 H   0  0  0  0  0  0  0  0  0  0  0  0
   -4.9605  -28.5520  -34.6845 H   0  0  0  0  0  0  0  0  0  0  0  0
  -12.9155  -26.3734  -37.8970 H   0  0  0  0  0  0  0  0  0  0  0  0
  -20.2567  -25.2236  -34.8627 H   0  0  0  0  0  0  0  0  0  0  0  0
   -3.5339  -30.5408  -34.8839 H   0  0  0  0  0  0  0  0  0  0  0  0
  -12.9049  -24.2223  -34.1733 H   0  0  0  0  0  0  0  0  0  0  0  0
   -8.4529  -30.9558  -35.4155 H   0  0  0  0  0  0  0  0  0  0  0  0
  -11.2694  -24.5839  -32.6004 H   0  0  0  0  0  0  0  0  0  0  0  0
  -10.2631  -26.0513  -32.6767 H   0  0  0  0  0  0  0  0  0  0  0  0
   -9.6661  -24.5468  -33.3750 H   0  0  0  0  0  0  0  0  0  0  0  0
  -14.9049  -26.4466  -37.1682 H   0  0  0  0  0  0  0  0  0  0  0  0
  -14.6949  -25.1391  -38.3442 H   0  0  0  0  0  0  0  0  0  0  0  0
   -7.2265  -27.7045  -34.3986 H   0  0  0  0  0  0  0  0  0  0  0  0
   -8.7217  -26.4311  -34.5448 H   0  0  0  0  0  0  0  0  0  0  0  0
  1  2  2  0  0  0  0
  1  3  1  0  0  0  0
  2  7  1  0  0  0  0
  3 12  2  0  0  0  0
  4  6  2  0  0  0  0
  4 14  1  0  0  0  0
  5  8  2  0  0  0  0
  5 13  1  0  0  0  0
  6 15  1  0  0  0  0
  7 16  2  0  0  0  0
  8 17  1  0  0  0  0
  9 11  1  0  0  0  0
  9 15  2  0  0  0  0
 10 13  2  0  0  0  0
 10 18  1  0  0  0  0
 11 14  2  0  0  0  0
 11 21  1  0  0  0  0
 12 16  1  0  0  0  0
 12 23  1  0  0  0  0
 13 24  1  0  0  0  0
 14 25  1  0  0  0  0
 15 27  1  0  0  0  0
 16 28  1  0  0  0  0
 17 18  2  0  0  0  0
 17 29  1  0  0  0  0
 18 30  1  0  0  0  0
 19 22  1  0  0  0  0
 19 23  2  0  0  0  0
 19 28  1  0  0  0  0
 20 24  1  0  0  0  0
 20 25  1  0  0  0  0
 20 26  2  0  0  0  0
 22 27  1  0  0  0  0
  1 31  1  0  0  0  0
  2 32  1  0  0  0  0
  3 33  1  0  0  0  0
  4 34  1  0  0  0  0
  5 35  1  0  0  0  0
  6 36  1  0  0  0  0
  7 37  1  0  0  0  0
  8 38  1  0  0  0  0
  9 39  1  0  0  0  0
 10 40  1  0  0  0  0
 21 41  1  0  0  0  0
 21 42  1  0  0  0  0
 21 43  1  0  0  0  0
 22 44  1  0  0  0  0
 22 45  1  0  0  0  0
 24 46  1  0  0  0  0
 25 47  1  0  0  0  0
M  END
> <Name>
Molecule1_Diflapolin

> <SourceTag>
Molecule1_Diflapolin

> <Activity_sEH>
23

> <Activity_FLAP>
0.23

> <Gold.Version>
5.2

> <Gold.Id.Protein>
6HGV|6HGV_protein|mol2

> <Gold.Goldscore.Fitness>
82.8417

> <Gold.Goldscore.Internal.Vdw>
-8.0866

> <Gold.Goldscore.Internal.Torsion>
-5.4925

> <Gold.Goldscore.External.Vdw>
62.7748

> <Gold.Goldscore.Internal.HBond>
0.0000

> <Gold.Goldscore.External.HBond>
0.0000

> <Gold.Goldscore.Internal.Correction>
-10.1055

> <Gold.Goldscore.Internal.Vdw.Weighted>
-8.0866

> <Gold.Goldscore.Internal.Torsion.Weighted>
-5.4925

> <Gold.Goldscore.External.Vdw.Weighted>
86.3153

> <Gold.Goldscore.Internal.HBond.Weighted>
0.0000

> <Gold.Goldscore.External.HBond.Weighted>
0.0000

> <Gold.Goldscore.Internal.Correction.Weighted>
-10.1055

> <Gold.Protein.RotatedTorsions>
[ 3781 1176 1175 1172 ] final  -25.93 input   60.00 | X-H torsion
[ 3847 1247 1246 1244 ] final   39.59 input   60.00 | X-H torsion
[ 4507 1931 1930 1928 ] final  145.60 input   60.00 | X-H torsion
[ 3677 1070 1069 1066 ] final  -43.95 input   60.00 | X-H torsion
[ 3525  925  924  922 ] final   98.28 input   59.99 | X-H torsion
[ 4531 1957 1955 1953 ] final -175.21 input   60.00 | X-H torsion

> <Gold.Protein.ActiveResidues>
 PHE267  PRO268  MET310  ASP335  TRP336  MET339  TYR343  THR360  PRO361  ILE363 
 PRO371  SER374  ILE375  ASN378  PHE381  TYR383  GLN384  PHE387  LEU408  LEU417 
 MET419  LEU428  TYR466  MET469  ASN472  ASP496  VAL498  LEU499  MET503  HIS524 
 TRP525 

> <Gold.Protein.RotatedAtoms>
   -2.3007  -30.0983  -30.6153 H   0  0  0  0  0  0  0  0  0  0  0  0  # atno 3525 bound_to 925 
  -12.5217  -23.7415  -31.0229 H   0  0  0  0  0  0  0  0  0  0  0  0  # atno 3677 bound_to 1070
  -10.6295  -37.0080  -33.9778 H   0  0  0  0  0  0  0  0  0  0  0  0  # atno 3781 bound_to 1176
  -15.1376  -28.9592  -37.1872 H   0  0  0  0  0  0  0  0  0  0  0  0  # atno 3847 bound_to 1247
  -12.5642  -23.7924  -39.7280 H   0  0  0  0  0  0  0  0  0  0  0  0  # atno 4507 bound_to 1931
   -1.4518  -33.7020  -36.9769 H   0  0  0  0  0  0  0  0  0  0  0  0  # atno 4531 bound_to 1957
   -9.2785  -36.3289  -33.3764 LP  0  0  0  0  0  0  0  0  0  0  0  0  # atno 5205 bound_to 1176
  -10.1986  -37.2953  -32.4351 LP  0  0  0  0  0  0  0  0  0  0  0  0  # atno 5206 bound_to 1176
  -15.9789  -27.5800  -37.3819 LP  0  0  0  0  0  0  0  0  0  0  0  0  # atno 5215 bound_to 1247
  -14.4483  -27.6918  -37.9399 LP  0  0  0  0  0  0  0  0  0  0  0  0  # atno 5216 bound_to 1247
  -12.9789  -25.1035  -38.8580 LP  0  0  0  0  0  0  0  0  0  0  0  0  # atno 5217 bound_to 1931
  -13.6552  -24.8438  -40.3215 LP  0  0  0  0  0  0  0  0  0  0  0  0  # atno 5218 bound_to 1931
  -11.1022  -22.9951  -31.2987 LP  0  0  0  0  0  0  0  0  0  0  0  0  # atno 5224 bound_to 1070
  -12.2262  -22.2917  -30.3455 LP  0  0  0  0  0  0  0  0  0  0  0  0  # atno 5225 bound_to 1070

$$$$
Molecule1_Diflapolin|Lisa_paper2_min|sdf|11|dock1
  -GOLD-  10182017113D 1   1.00000     0.00000

 47 50  0  0  0  0  0  0  0  0  1 V2000
  -20.6835  -24.1546  -36.2076 C   0  0  0  0  0  0  0  0  0  0  0  0
  -20.7810  -23.4601  -37.4083 C   0  0  0  0  0  0  0  0  0  0  0  0
  -19.4812  -24.7618  -35.8337 C   0  0  0  0  0  0  0  0  0  0  0  0
  -11.0294  -26.6288  -36.6919 C   0  0  0  0  0  0  0  0  0  0  0  0
   -5.3241  -29.4539  -34.7289 C   0  0  0  0  0  0  0  0  0  0  0  0
  -12.2353  -26.0437  -37.0781 C   0  0  0  0  0  0  0  0  0  0  0  0
  -19.6831  -23.3537  -38.2659 C   0  0  0  0  0  0  0  0  0  0  0  0
   -4.4883  -30.5642  -34.8484 C   0  0  0  0  0  0  0  0  0  0  0  0
  -12.4151  -24.9854  -34.9137 C   0  0  0  0  0  0  0  0  0  0  0  0
   -7.2294  -30.8273  -35.2952 C   0  0  0  0  0  0  0  0  0  0  0  0
  -11.2093  -25.5705  -34.5274 C   0  0  0  0  0  0  0  0  0  0  0  0
  -18.3565  -24.6696  -36.6819 C   0  0  0  0  0  0  0  0  0  0  0  0
   -6.6947  -29.5855  -34.9523 C   0  0  0  0  0  0  0  0  0  0  0  0
  -10.5164  -26.3922  -35.4165 C   0  0  0  0  0  0  0  0  0  0  0  0
  -12.9281  -25.2221  -36.1891 C   0  0  0  0  0  0  0  0  0  0  0  0
  -18.4786  -23.9662  -37.8842 C   0  0  0  0  0  0  0  0  0  0  0  0
   -5.0230  -31.8059  -35.1912 C   0  0  0  0  0  0  0  0  0  0  0  0
   -6.3936  -31.9376  -35.4146 C   0  0  0  0  0  0  0  0  0  0  0  0
  -16.3032  -24.9350  -37.4438 C   0  0  0  0  0  0  0  0  0  0  0  0
   -8.7935  -28.2498  -35.4321 C   0  0  0  0  0  0  0  0  0  0  0  0
  -10.6839  -25.2994  -33.1551 C   0  0  0  0  0  0  0  0  0  0  0  0
  -14.8894  -25.3614  -37.5268 C   0  0  0  0  0  0  0  0  0  0  0  0
  -17.1049  -25.2187  -36.4441 N   0  0  0  0  0  0  0  0  0  0  0  0
   -7.5423  -28.4591  -34.8303 N   0  0  0  0  0  0  0  0  0  0  0  0
   -9.3082  -26.9889  -35.0476 N   0  0  0  0  0  0  0  0  0  0  0  0
   -9.3615  -29.0385  -36.1807 O   0  0  0  0  0  0  0  0  0  0  0  0
  -14.1107  -24.6477  -36.5682 O   0  0  0  0  0  0  0  0  0  0  0  0
  -16.9704  -24.0099  -38.7186 S   0  0  0  0  0  0  0  0  0  0  0  0
   -3.9351  -33.1426  -35.3268 Cl  0  0  0  0  0  0  0  0  0  0  0  0
   -7.1150  -33.4489  -35.8442 Cl  0  0  0  0  0  0  0  0  0  0  0  0
  -21.5482  -24.2267  -35.5536 H   0  0  0  0  0  0  0  0  0  0  0  0
  -21.7227  -22.9934  -37.6850 H   0  0  0  0  0  0  0  0  0  0  0  0
  -19.4162  -25.3009  -34.8929 H   0  0  0  0  0  0  0  0  0  0  0  0
  -10.4988  -27.2683  -37.3930 H   0  0  0  0  0  0  0  0  0  0  0  0
   -4.8974  -28.4910  -34.4598 H   0  0  0  0  0  0  0  0  0  0  0  0
  -12.6295  -26.2315  -38.0731 H   0  0  0  0  0  0  0  0  0  0  0  0
  -19.7664  -22.8088  -39.2013 H   0  0  0  0  0  0  0  0  0  0  0  0
   -3.4228  -30.4435  -34.6692 H   0  0  0  0  0  0  0  0  0  0  0  0
  -12.9579  -24.3448  -34.2227 H   0  0  0  0  0  0  0  0  0  0  0  0
   -8.2993  -30.9235  -35.4695 H   0  0  0  0  0  0  0  0  0  0  0  0
   -9.7773  -24.6863  -33.2105 H   0  0  0  0  0  0  0  0  0  0  0  0
  -11.4266  -24.7720  -32.5442 H   0  0  0  0  0  0  0  0  0  0  0  0
  -10.4441  -26.2330  -32.6318 H   0  0  0  0  0  0  0  0  0  0  0  0
  -14.7709  -26.4403  -37.3290 H   0  0  0  0  0  0  0  0  0  0  0  0
  -14.4629  -25.1724  -38.5265 H   0  0  0  0  0  0  0  0  0  0  0  0
   -7.2036  -27.7089  -34.2333 H   0  0  0  0  0  0  0  0  0  0  0  0
   -8.7074  -26.4504  -34.4158 H   0  0  0  0  0  0  0  0  0  0  0  0
  1  2  2  0  0  0  0
  1  3  1  0  0  0  0
  2  7  1  0  0  0  0
  3 12  2  0  0  0  0
  4  6  2  0  0  0  0
  4 14  1  0  0  0  0
  5  8  2  0  0  0  0
  5 13  1  0  0  0  0
  6 15  1  0  0  0  0
  7 16  2  0  0  0  0
  8 17  1  0  0  0  0
  9 11  1  0  0  0  0
  9 15  2  0  0  0  0
 10 13  2  0  0  0  0
 10 18  1  0  0  0  0
 11 14  2  0  0  0  0
 11 21  1  0  0  0  0
 12 16  1  0  0  0  0
 12 23  1  0  0  0  0
 13 24  1  0  0  0  0
 14 25  1  0  0  0  0
 15 27  1  0  0  0  0
 16 28  1  0  0  0  0
 17 18  2  0  0  0  0
 17 29  1  0  0  0  0
 18 30  1  0  0  0  0
 19 22  1  0  0  0  0
 19 23  2  0  0  0  0
 19 28  1  0  0  0  0
 20 24  1  0  0  0  0
 20 25  1  0  0  0  0
 20 26  2  0  0  0  0
 22 27  1  0  0  0  0
  1 31  1  0  0  0  0
  2 32  1  0  0  0  0
  3 33  1  0  0  0  0
  4 34  1  0  0  0  0
  5 35  1  0  0  0  0
  6 36  1  0  0  0  0
  7 37  1  0  0  0  0
  8 38  1  0  0  0  0
  9 39  1  0  0  0  0
 10 40  1  0  0  0  0
 21 41  1  0  0  0  0
 21 42  1  0  0  0  0
 21 43  1  0  0  0  0
 22 44  1  0  0  0  0
 22 45  1  0  0  0  0
 24 46  1  0  0  0  0
 25 47  1  0  0  0  0
M  END
> <Name>
Molecule1_Diflapolin

> <SourceTag>
Molecule1_Diflapolin

> <Activity_sEH>
23

> <Activity_FLAP>
0.23

> <Gold.Version>
5.2

> <Gold.Id.Protein>
6HGV|6HGV_protein|mol2

> <Gold.Goldscore.Fitness>
81.1560

> <Gold.Goldscore.Internal.Vdw>
-6.2410

> <Gold.Goldscore.Internal.Torsion>
-5.7170

> <Gold.Goldscore.External.Vdw>
59.4438

> <Gold.Goldscore.Internal.HBond>
0.0000

> <Gold.Goldscore.External.HBond>
0.0000

> <Gold.Goldscore.Internal.Correction>
-11.3788

> <Gold.Goldscore.Internal.Vdw.Weighted>
-6.2410

> <Gold.Goldscore.Internal.Torsion.Weighted>
-5.7170

> <Gold.Goldscore.External.Vdw.Weighted>
81.7352

> <Gold.Goldscore.Internal.HBond.Weighted>
0.0000

> <Gold.Goldscore.External.HBond.Weighted>
0.0000

> <Gold.Goldscore.Internal.Correction.Weighted>
-11.3788

> <Gold.Protein.RotatedTorsions>
[ 3781 1176 1175 1172 ] final   80.17 input   60.00 | X-H torsion
[ 3847 1247 1246 1244 ] final   53.65 input   60.00 | X-H torsion
[ 4507 1931 1930 1928 ] final  117.42 input   60.00 | X-H torsion
[ 3677 1070 1069 1066 ] final  156.16 input   60.00 | X-H torsion
[ 3525  925  924  922 ] final   35.42 input   59.99 | X-H torsion
[ 4531 1957 1955 1953 ] final -174.57 input   60.00 | X-H torsion

> <Gold.Protein.ActiveResidues>
 PHE267  PRO268  MET310  ASP335  TRP336  MET339  TYR343  THR360  PRO361  ILE363 
 PRO371  SER374  ILE375  ASN378  PHE381  TYR383  GLN384  PHE387  LEU408  LEU417 
 MET419  LEU428  TYR466  MET469  ASN472  ASP496  VAL498  LEU499  MET503  HIS524 
 TRP525 

> <Gold.Protein.RotatedAtoms>
   -3.1693  -29.7011  -30.8181 H   0  0  0  0  0  0  0  0  0  0  0  0  # atno 3525 bound_to 925 
  -11.1930  -22.4653  -30.9493 H   0  0  0  0  0  0  0  0  0  0  0  0  # atno 3677 bound_to 1070
  -10.3783  -37.3755  -32.5492 H   0  0  0  0  0  0  0  0  0  0  0  0  # atno 3781 bound_to 1176
  -14.9259  -28.9484  -37.2745 H   0  0  0  0  0  0  0  0  0  0  0  0  # atno 3847 bound_to 1247
  -12.4404  -23.9558  -39.3211 H   0  0  0  0  0  0  0  0  0  0  0  0  # atno 4507 bound_to 1931
   -1.4455  -33.6937  -36.9780 H   0  0  0  0  0  0  0  0  0  0  0  0  # atno 4531 bound_to 1957
  -10.4898  -36.8691  -34.0916 LP  0  0  0  0  0  0  0  0  0  0  0  0  # atno 5205 bound_to 1176
   -9.2402  -36.3849  -33.1586 LP  0  0  0  0  0  0  0  0  0  0  0  0  # atno 5206 bound_to 1176
  -16.0517  -27.7735  -37.2793 LP  0  0  0  0  0  0  0  0  0  0  0  0  # atno 5215 bound_to 1247
  -14.5887  -27.5091  -37.9547 LP  0  0  0  0  0  0  0  0  0  0  0  0  # atno 5216 bound_to 1247
  -13.2871  -25.3297  -39.1121 LP  0  0  0  0  0  0  0  0  0  0  0  0  # atno 5217 bound_to 1931
  -13.4718  -24.4530  -40.4773 LP  0  0  0  0  0  0  0  0  0  0  0  0  # atno 5218 bound_to 1931
  -12.6897  -22.7370  -30.3712 LP  0  0  0  0  0  0  0  0  0  0  0  0  # atno 5224 bound_to 1070
  -11.9766  -23.8350  -31.3471 LP  0  0  0  0  0  0  0  0  0  0  0  0  # atno 5225 bound_to 1070

$$$$
Molecule1_Diflapolin|Lisa_paper2_min|sdf|11|dock2
  -GOLD-  10182017113D 1   1.00000     0.00000

 47 50  0  0  0  0  0  0  0  0  1 V2000
  -21.2736  -24.0591  -37.4214 C   0  0  0  0  0  0  0  0  0  0  0  0
  -21.3491  -24.4527  -36.0898 C   0  0  0  0  0  0  0  0  0  0  0  0
  -20.0573  -24.1081  -38.1087 C   0  0  0  0  0  0  0  0  0  0  0  0
  -11.4296  -26.5257  -36.6451 C   0  0  0  0  0  0  0  0  0  0  0  0
   -5.6353  -29.3273  -34.9667 C   0  0  0  0  0  0  0  0  0  0  0  0
  -12.6617  -25.9605  -36.9741 C   0  0  0  0  0  0  0  0  0  0  0  0
  -20.2149  -24.9045  -35.4105 C   0  0  0  0  0  0  0  0  0  0  0  0
   -4.7893  -30.4254  -35.1214 C   0  0  0  0  0  0  0  0  0  0  0  0
  -12.8466  -25.0624  -34.7389 C   0  0  0  0  0  0  0  0  0  0  0  0
   -7.5516  -30.7518  -35.3342 C   0  0  0  0  0  0  0  0  0  0  0  0
  -11.6147  -25.6277  -34.4098 C   0  0  0  0  0  0  0  0  0  0  0  0
  -18.8959  -24.5606  -37.4459 C   0  0  0  0  0  0  0  0  0  0  0  0
   -7.0165  -29.4905  -35.0731 C   0  0  0  0  0  0  0  0  0  0  0  0
  -10.9061  -26.3594  -35.3628 C   0  0  0  0  0  0  0  0  0  0  0  0
  -13.3702  -25.2289  -36.0211 C   0  0  0  0  0  0  0  0  0  0  0  0
  -18.9964  -24.9510  -36.1070 C   0  0  0  0  0  0  0  0  0  0  0  0
   -5.3244  -31.6867  -35.3826 C   0  0  0  0  0  0  0  0  0  0  0  0
   -6.7057  -31.8499  -35.4890 C   0  0  0  0  0  0  0  0  0  0  0  0
  -16.7911  -25.1196  -37.0934 C   0  0  0  0  0  0  0  0  0  0  0  0
   -9.1574  -28.1904  -35.4542 C   0  0  0  0  0  0  0  0  0  0  0  0
  -11.0787  -25.4332  -33.0286 C   0  0  0  0  0  0  0  0  0  0  0  0
  -15.3504  -25.3541  -37.3320 C   0  0  0  0  0  0  0  0  0  0  0  0
  -17.6267  -24.6627  -37.9965 N   0  0  0  0  0  0  0  0  0  0  0  0
   -7.8743  -28.3763  -34.9153 N   0  0  0  0  0  0  0  0  0  0  0  0
   -9.6717  -26.9349  -35.0520 N   0  0  0  0  0  0  0  0  0  0  0  0
   -9.7502  -28.9929  -36.1681 O   0  0  0  0  0  0  0  0  0  0  0  0
  -14.5784  -24.6739  -36.3441 O   0  0  0  0  0  0  0  0  0  0  0  0
  -17.4449  -25.4546  -35.5486 S   0  0  0  0  0  0  0  0  0  0  0  0
   -4.2239  -33.0070  -35.5673 Cl  0  0  0  0  0  0  0  0  0  0  0  0
   -7.4284  -33.3867  -35.8133 Cl  0  0  0  0  0  0  0  0  0  0  0  0
  -22.1664  -23.7104  -37.9331 H   0  0  0  0  0  0  0  0  0  0  0  0
  -22.3021  -24.4088  -35.5691 H   0  0  0  0  0  0  0  0  0  0  0  0
  -20.0102  -23.7992  -39.1491 H   0  0  0  0  0  0  0  0  0  0  0  0
  -10.8870  -27.0948  -37.3959 H   0  0  0  0  0  0  0  0  0  0  0  0
   -5.2079  -28.3489  -34.7620 H   0  0  0  0  0  0  0  0  0  0  0  0
  -13.0639  -26.0932  -37.9748 H   0  0  0  0  0  0  0  0  0  0  0  0
  -20.2818  -25.2113  -34.3712 H   0  0  0  0  0  0  0  0  0  0  0  0
   -3.7154  -30.2799  -35.0338 H   0  0  0  0  0  0  0  0  0  0  0  0
  -13.4017  -24.4919  -33.9980 H   0  0  0  0  0  0  0  0  0  0  0  0
   -8.6300  -30.8727  -35.4174 H   0  0  0  0  0  0  0  0  0  0  0  0
  -10.2595  -24.7053  -33.0389 H   0  0  0  0  0  0  0  0  0  0  0  0
  -11.8596  -25.0721  -32.3484 H   0  0  0  0  0  0  0  0  0  0  0  0
  -10.7039  -26.3766  -32.6133 H   0  0  0  0  0  0  0  0  0  0  0  0
  -15.0935  -26.4262  -37.2886 H   0  0  0  0  0  0  0  0  0  0  0  0
  -15.0357  -24.9913  -38.3251 H   0  0  0  0  0  0  0  0  0  0  0  0
   -7.5176  -27.6168  -34.3409 H   0  0  0  0  0  0  0  0  0  0  0  0
   -9.0482  -26.3828  -34.4548 H   0  0  0  0  0  0  0  0  0  0  0  0
  1  2  2  0  0  0  0
  1  3  1  0  0  0  0
  2  7  1  0  0  0  0
  3 12  2  0  0  0  0
  4  6  2  0  0  0  0
  4 14  1  0  0  0  0
  5  8  2  0  0  0  0
  5 13  1  0  0  0  0
  6 15  1  0  0  0  0
  7 16  2  0  0  0  0
  8 17  1  0  0  0  0
  9 11  1  0  0  0  0
  9 15  2  0  0  0  0
 10 13  2  0  0  0  0
 10 18  1  0  0  0  0
 11 14  2  0  0  0  0
 11 21  1  0  0  0  0
 12 16  1  0  0  0  0
 12 23  1  0  0  0  0
 13 24  1  0  0  0  0
 14 25  1  0  0  0  0
 15 27  1  0  0  0  0
 16 28  1  0  0  0  0
 17 18  2  0  0  0  0
 17 29  1  0  0  0  0
 18 30  1  0  0  0  0
 19 22  1  0  0  0  0
 19 23  2  0  0  0  0
 19 28  1  0  0  0  0
 20 24  1  0  0  0  0
 20 25  1  0  0  0  0
 20 26  2  0  0  0  0
 22 27  1  0  0  0  0
  1 31  1  0  0  0  0
  2 32  1  0  0  0  0
  3 33  1  0  0  0  0
  4 34  1  0  0  0  0
  5 35  1  0  0  0  0
  6 36  1  0  0  0  0
  7 37  1  0  0  0  0
  8 38  1  0  0  0  0
  9 39  1  0  0  0  0
 10 40  1  0  0  0  0
 21 41  1  0  0  0  0
 21 42  1  0  0  0  0
 21 43  1  0  0  0  0
 22 44  1  0  0  0  0
 22 45  1  0  0  0  0
 24 46  1  0  0  0  0
 25 47  1  0  0  0  0
M  END
> <Name>
Molecule1_Diflapolin

> <SourceTag>
Molecule1_Diflapolin

> <Activity_sEH>
23

> <Activity_FLAP>
0.23

> <Gold.Version>
5.2

> <Gold.Id.Protein>
6HGV|6HGV_protein|mol2

> <Gold.Goldscore.Fitness>
80.1798

> <Gold.Goldscore.Internal.Vdw>
-5.1000

> <Gold.Goldscore.Internal.Torsion>
-7.1105

> <Gold.Goldscore.External.Vdw>
58.9004

> <Gold.Goldscore.Internal.HBond>
0.0000

> <Gold.Goldscore.External.HBond>
0.0233

> <Gold.Goldscore.Internal.Correction>
-11.3788

> <Gold.Goldscore.Hbonds>
donor molecule, donor type, donor heavy atom, donor atom, acceptor molecule, acceptor atom, score
      P1  H  1256  3854       L1    26  0.01

> <Gold.Goldscore.Internal.Vdw.Weighted>
-5.1000

> <Gold.Goldscore.Internal.Torsion.Weighted>
-7.1105

> <Gold.Goldscore.External.Vdw.Weighted>
80.9881

> <Gold.Goldscore.Internal.HBond.Weighted>
0.0000

> <Gold.Goldscore.External.HBond.Weighted>
0.0233

> <Gold.Goldscore.Internal.Correction.Weighted>
-11.3788

> <Gold.Protein.RotatedTorsions>
[ 3781 1176 1175 1172 ] final  -59.40 input   60.00 | X-H torsion
[ 3847 1247 1246 1244 ] final    7.77 input   60.00 | X-H torsion
[ 4507 1931 1930 1928 ] final  112.46 input   60.00 | X-H torsion
[ 3677 1070 1069 1066 ] final  -27.16 input   60.00 | X-H torsion
[ 3525  925  924  922 ] final  -54.19 input   59.99 | X-H torsion
[ 4531 1957 1955 1953 ] final  -90.78 input   60.00 | X-H torsion

> <Gold.Protein.ActiveResidues>
 PHE267  PRO268  MET310  ASP335  TRP336  MET339  TYR343  THR360  PRO361  ILE363 
 PRO371  SER374  ILE375  ASN378  PHE381  TYR383  GLN384  PHE387  LEU408  LEU417 
 MET419  LEU428  TYR466  MET469  ASN472  ASP496  VAL498  LEU499  MET503  HIS524 
 TRP525 

> <Gold.Protein.RotatedAtoms>
   -3.7353  -29.5626  -29.6343 H   0  0  0  0  0  0  0  0  0  0  0  0  # atno 3525 bound_to 925 
  -12.6834  -23.5940  -30.8594 H   0  0  0  0  0  0  0  0  0  0  0  0  # atno 3677 bound_to 1070
  -10.2401  -36.6810  -34.1573 H   0  0  0  0  0  0  0  0  0  0  0  0  # atno 3781 bound_to 1176
  -15.6079  -28.7932  -37.0661 H   0  0  0  0  0  0  0  0  0  0  0  0  # atno 3847 bound_to 1247
  -12.4335  -24.0016  -39.2546 H   0  0  0  0  0  0  0  0  0  0  0  0  # atno 4507 bound_to 1931
   -1.5481  -32.4481  -36.9369 H   0  0  0  0  0  0  0  0  0  0  0  0  # atno 4531 bound_to 1957
   -9.2654  -36.5116  -32.8652 LP  0  0  0  0  0  0  0  0  0  0  0  0  # atno 5205 bound_to 1176
  -10.6038  -37.4419  -32.7656 LP  0  0  0  0  0  0  0  0  0  0  0  0  # atno 5206 bound_to 1176
  -15.6506  -27.2675  -37.6303 LP  0  0  0  0  0  0  0  0  0  0  0  0  # atno 5215 bound_to 1247
  -14.3030  -28.1714  -37.8135 LP  0  0  0  0  0  0  0  0  0  0  0  0  # atno 5216 bound_to 1247
  -13.3378  -25.3520  -39.1719 LP  0  0  0  0  0  0  0  0  0  0  0  0  # atno 5217 bound_to 1931
  -13.4279  -24.3846  -40.4845 LP  0  0  0  0  0  0  0  0  0  0  0  0  # atno 5218 bound_to 1931
  -11.1885  -23.2381  -31.3947 LP  0  0  0  0  0  0  0  0  0  0  0  0  # atno 5224 bound_to 1070
  -11.9770  -22.1972  -30.4142 LP  0  0  0  0  0  0  0  0  0  0  0  0  # atno 5225 bound_to 1070

$$$$
Molecule1_Diflapolin|Lisa_paper2_min|sdf|11|dock6
  -GOLD-  10182017123D 1   1.00000     0.00000

 47 50  0  0  0  0  0  0  0  0  1 V2000
   -2.2949  -29.8321  -32.6276 C   0  0  0  0  0  0  0  0  0  0  0  0
   -2.2954  -31.2031  -32.8597 C   0  0  0  0  0  0  0  0  0  0  0  0
   -3.3655  -29.0394  -33.0516 C   0  0  0  0  0  0  0  0  0  0  0  0
  -10.8765  -27.2559  -36.7844 C   0  0  0  0  0  0  0  0  0  0  0  0
  -16.1471  -23.2960  -38.1967 C   0  0  0  0  0  0  0  0  0  0  0  0
   -9.9407  -28.1389  -36.2458 C   0  0  0  0  0  0  0  0  0  0  0  0
   -3.3623  -31.8179  -33.5200 C   0  0  0  0  0  0  0  0  0  0  0  0
  -17.3037  -23.1625  -38.9647 C   0  0  0  0  0  0  0  0  0  0  0  0
   -9.8004  -26.7766  -34.2554 C   0  0  0  0  0  0  0  0  0  0  0  0
  -15.3901  -25.0749  -39.6457 C   0  0  0  0  0  0  0  0  0  0  0  0
  -10.7361  -25.8935  -34.7940 C   0  0  0  0  0  0  0  0  0  0  0  0
   -4.4562  -29.6353  -33.7211 C   0  0  0  0  0  0  0  0  0  0  0  0
  -15.1902  -24.2521  -38.5372 C   0  0  0  0  0  0  0  0  0  0  0  0
  -11.2742  -26.1330  -36.0585 C   0  0  0  0  0  0  0  0  0  0  0  0
   -9.4026  -27.8994  -34.9814 C   0  0  0  0  0  0  0  0  0  0  0  0
   -4.4342  -31.0156  -33.9432 C   0  0  0  0  0  0  0  0  0  0  0  0
  -17.5036  -23.9852  -40.0732 C   0  0  0  0  0  0  0  0  0  0  0  0
  -16.5468  -24.9414  -40.4137 C   0  0  0  0  0  0  0  0  0  0  0  0
   -6.3887  -29.8449  -34.7643 C   0  0  0  0  0  0  0  0  0  0  0  0
  -13.3445  -25.5676  -37.4050 C   0  0  0  0  0  0  0  0  0  0  0  0
  -11.1433  -24.6990  -33.9938 C   0  0  0  0  0  0  0  0  0  0  0  0
   -7.6864  -29.4960  -35.3823 C   0  0  0  0  0  0  0  0  0  0  0  0
   -5.5818  -28.9790  -34.1972 N   0  0  0  0  0  0  0  0  0  0  0  0
  -14.0167  -24.3866  -37.7583 N   0  0  0  0  0  0  0  0  0  0  0  0
  -12.2110  -25.2593  -36.6158 N   0  0  0  0  0  0  0  0  0  0  0  0
  -13.6839  -26.7011  -37.7290 O   0  0  0  0  0  0  0  0  0  0  0  0
   -8.4852  -28.7661  -34.4529 O   0  0  0  0  0  0  0  0  0  0  0  0
   -5.8741  -31.4762  -34.7723 S   0  0  0  0  0  0  0  0  0  0  0  0
  -18.9584  -23.7733  -40.9827 Cl  0  0  0  0  0  0  0  0  0  0  0  0
  -16.7385  -25.9913  -41.7740 Cl  0  0  0  0  0  0  0  0  0  0  0  0
   -1.4563  -29.3717  -32.1126 H   0  0  0  0  0  0  0  0  0  0  0  0
   -1.4556  -31.8059  -32.5240 H   0  0  0  0  0  0  0  0  0  0  0  0
   -3.3550  -27.9695  -32.8639 H   0  0  0  0  0  0  0  0  0  0  0  0
  -11.2881  -27.4524  -37.7713 H   0  0  0  0  0  0  0  0  0  0  0  0
  -16.0004  -22.6488  -37.3357 H   0  0  0  0  0  0  0  0  0  0  0  0
   -9.6352  -29.0121  -36.8160 H   0  0  0  0  0  0  0  0  0  0  0  0
   -3.3561  -32.8891  -33.6966 H   0  0  0  0  0  0  0  0  0  0  0  0
  -18.0380  -22.4110  -38.6855 H   0  0  0  0  0  0  0  0  0  0  0  0
   -9.3787  -26.5924  -33.2702 H   0  0  0  0  0  0  0  0  0  0  0  0
  -14.6406  -25.8198  -39.9057 H   0  0  0  0  0  0  0  0  0  0  0  0
  -10.5799  -24.6619  -33.0546 H   0  0  0  0  0  0  0  0  0  0  0  0
  -10.9613  -23.7705  -34.5484 H   0  0  0  0  0  0  0  0  0  0  0  0
  -12.2144  -24.7266  -33.7590 H   0  0  0  0  0  0  0  0  0  0  0  0
   -7.5603  -28.8760  -36.2861 H   0  0  0  0  0  0  0  0  0  0  0  0
   -8.2486  -30.3945  -35.6884 H   0  0  0  0  0  0  0  0  0  0  0  0
  -13.6101  -23.5214  -37.4116 H   0  0  0  0  0  0  0  0  0  0  0  0
  -12.0682  -24.2609  -36.4347 H   0  0  0  0  0  0  0  0  0  0  0  0
  1  2  2  0  0  0  0
  1  3  1  0  0  0  0
  2  7  1  0  0  0  0
  3 12  2  0  0  0  0
  4  6  2  0  0  0  0
  4 14  1  0  0  0  0
  5  8  2  0  0  0  0
  5 13  1  0  0  0  0
  6 15  1  0  0  0  0
  7 16  2  0  0  0  0
  8 17  1  0  0  0  0
  9 11  1  0  0  0  0
  9 15  2  0  0  0  0
 10 13  2  0  0  0  0
 10 18  1  0  0  0  0
 11 14  2  0  0  0  0
 11 21  1  0  0  0  0
 12 16  1  0  0  0  0
 12 23  1  0  0  0  0
 13 24  1  0  0  0  0
 14 25  1  0  0  0  0
 15 27  1  0  0  0  0
 16 28  1  0  0  0  0
 17 18  2  0  0  0  0
 17 29  1  0  0  0  0
 18 30  1  0  0  0  0
 19 22  1  0  0  0  0
 19 23  2  0  0  0  0
 19 28  1  0  0  0  0
 20 24  1  0  0  0  0
 20 25  1  0  0  0  0
 20 26  2  0  0  0  0
 22 27  1  0  0  0  0
  1 31  1  0  0  0  0
  2 32  1  0  0  0  0
  3 33  1  0  0  0  0
  4 34  1  0  0  0  0
  5 35  1  0  0  0  0
  6 36  1  0  0  0  0
  7 37  1  0  0  0  0
  8 38  1  0  0  0  0
  9 39  1  0  0  0  0
 10 40  1  0  0  0  0
 21 41  1  0  0  0  0
 21 42  1  0  0  0  0
 21 43  1  0  0  0  0
 22 44  1  0  0  0  0
 22 45  1  0  0  0  0
 24 46  1  0  0  0  0
 25 47  1  0  0  0  0
M  END
> <Name>
Molecule1_Diflapolin

> <SourceTag>
Molecule1_Diflapolin

> <Activity_sEH>
23

> <Activity_FLAP>
0.23

> <Gold.Version>
5.2

> <Gold.Id.Protein>
6HGV|6HGV_protein|mol2

> <Gold.Goldscore.Fitness>
79.7797

> <Gold.Goldscore.Internal.Vdw>
-5.6861

> <Gold.Goldscore.Internal.Torsion>
-7.9360

> <Gold.Goldscore.External.Vdw>
55.7060

> <Gold.Goldscore.Internal.HBond>
0.0000

> <Gold.Goldscore.External.HBond>
6.7005

> <Gold.Goldscore.Internal.Correction>
-10.1055

> <Gold.Goldscore.Hbonds>
donor molecule, donor type, donor heavy atom, donor atom, acceptor molecule, acceptor atom, score
      P1  H  1247  3847       L1    26  0.34
      L1  H    24    46       P1   854  0.76
      L1  H    25    47       P1   854  0.24

> <Gold.Goldscore.Internal.Vdw.Weighted>
-5.6861

> <Gold.Goldscore.Internal.Torsion.Weighted>
-7.9360

> <Gold.Goldscore.External.Vdw.Weighted>
76.5958

> <Gold.Goldscore.Internal.HBond.Weighted>
0.0000

> <Gold.Goldscore.External.HBond.Weighted>
6.7005

> <Gold.Goldscore.Internal.Correction.Weighted>
-10.1055

> <Gold.Protein.RotatedTorsions>
[ 3781 1176 1175 1172 ] final  -31.98 input   60.00 | X-H torsion
[ 3847 1247 1246 1244 ] final  170.37 input   60.00 | X-H torsion
[ 4507 1931 1930 1928 ] final  163.79 input   60.00 | X-H torsion
[ 3677 1070 1069 1066 ] final   -5.50 input   60.00 | X-H torsion
[ 3525  925  924  922 ] final  -28.86 input   59.99 | X-H torsion
[ 4531 1957 1955 1953 ] final    7.29 input   60.00 | X-H torsion

> <Gold.Protein.ActiveResidues>
 PHE267  PRO268  MET310  ASP335  TRP336  MET339  TYR343  THR360  PRO361  ILE363 
 PRO371  SER374  ILE375  ASN378  PHE381  TYR383  GLN384  PHE387  LEU408  LEU417 
 MET419  LEU428  TYR466  MET469  ASN472  ASP496  VAL498  LEU499  MET503  HIS524 
 TRP525 

> <Gold.Protein.RotatedAtoms>
   -3.7633  -29.5132  -30.0409 H   0  0  0  0  0  0  0  0  0  0  0  0  # atno 3525 bound_to 925 
  -12.7986  -23.3326  -30.6539 H   0  0  0  0  0  0  0  0  0  0  0  0  # atno 3677 bound_to 1070
  -10.5706  -36.9489  -34.0307 H   0  0  0  0  0  0  0  0  0  0  0  0  # atno 3781 bound_to 1176
  -14.5577  -27.5535  -37.9526 H   0  0  0  0  0  0  0  0  0  0  0  0  # atno 3847 bound_to 1247
  -12.7103  -23.7852  -39.9855 H   0  0  0  0  0  0  0  0  0  0  0  0  # atno 4507 bound_to 1931
   -2.9304  -32.5936  -36.6767 H   0  0  0  0  0  0  0  0  0  0  0  0  # atno 4531 bound_to 1957
   -9.2562  -36.3495  -33.2817 LP  0  0  0  0  0  0  0  0  0  0  0  0  # atno 5205 bound_to 1176
  -10.2802  -37.3342  -32.4766 LP  0  0  0  0  0  0  0  0  0  0  0  0  # atno 5206 bound_to 1176
  -14.9719  -28.9610  -37.2488 LP  0  0  0  0  0  0  0  0  0  0  0  0  # atno 5215 bound_to 1247
  -16.0393  -27.7263  -37.3022 LP  0  0  0  0  0  0  0  0  0  0  0  0  # atno 5216 bound_to 1247
  -12.7862  -24.8864  -38.7898 LP  0  0  0  0  0  0  0  0  0  0  0  0  # atno 5217 bound_to 1931
  -13.7008  -25.0681  -40.1304 LP  0  0  0  0  0  0  0  0  0  0  0  0  # atno 5218 bound_to 1931
  -11.3942  -23.5204  -31.4543 LP  0  0  0  0  0  0  0  0  0  0  0  0  # atno 5224 bound_to 1070
  -11.6553  -22.1782  -30.5615 LP  0  0  0  0  0  0  0  0  0  0  0  0  # atno 5225 bound_to 1070

$$$$
Molecule1_Diflapolin|Lisa_paper2_min|sdf|11|dock10
  -GOLD-  10182017123D 1   1.00000     0.00000

 47 50  0  0  0  0  0  0  0  0  1 V2000
   -3.5911  -33.0888  -33.4372 C   0  0  0  0  0  0  0  0  0  0  0  0
   -2.9407  -32.0033  -32.8606 C   0  0  0  0  0  0  0  0  0  0  0  0
   -4.7760  -32.9069  -34.1562 C   0  0  0  0  0  0  0  0  0  0  0  0
  -11.0297  -26.9033  -36.6384 C   0  0  0  0  0  0  0  0  0  0  0  0
  -17.1309  -24.2750  -37.2134 C   0  0  0  0  0  0  0  0  0  0  0  0
   -9.8359  -27.5734  -36.3714 C   0  0  0  0  0  0  0  0  0  0  0  0
   -3.4550  -30.7103  -32.9862 C   0  0  0  0  0  0  0  0  0  0  0  0
  -18.2654  -24.2154  -38.0225 C   0  0  0  0  0  0  0  0  0  0  0  0
   -9.6742  -26.4381  -34.2449 C   0  0  0  0  0  0  0  0  0  0  0  0
  -15.8113  -24.9687  -39.1146 C   0  0  0  0  0  0  0  0  0  0  0  0
  -10.8679  -25.7679  -34.5119 C   0  0  0  0  0  0  0  0  0  0  0  0
   -5.3173  -31.6109  -34.2983 C   0  0  0  0  0  0  0  0  0  0  0  0
  -15.9038  -24.6517  -37.7594 C   0  0  0  0  0  0  0  0  0  0  0  0
  -11.5457  -26.0004  -35.7087 C   0  0  0  0  0  0  0  0  0  0  0  0
   -9.1581  -27.3409  -35.1747 C   0  0  0  0  0  0  0  0  0  0  0  0
   -4.6456  -30.5350  -33.7096 C   0  0  0  0  0  0  0  0  0  0  0  0
  -18.1730  -24.5324  -39.3777 C   0  0  0  0  0  0  0  0  0  0  0  0
  -16.9458  -24.9091  -39.9237 C   0  0  0  0  0  0  0  0  0  0  0  0
   -6.6779  -29.9842  -34.9059 C   0  0  0  0  0  0  0  0  0  0  0  0
  -13.6946  -25.6318  -36.9993 C   0  0  0  0  0  0  0  0  0  0  0  0
  -11.3968  -24.8064  -33.4977 C   0  0  0  0  0  0  0  0  0  0  0  0
   -7.8242  -29.2793  -35.5197 C   0  0  0  0  0  0  0  0  0  0  0  0
   -6.4794  -31.2794  -34.9795 N   0  0  0  0  0  0  0  0  0  0  0  0
  -14.7530  -24.7113  -36.9382 N   0  0  0  0  0  0  0  0  0  0  0  0
  -12.7416  -25.3375  -35.9953 N   0  0  0  0  0  0  0  0  0  0  0  0
  -13.6033  -26.5558  -37.8010 O   0  0  0  0  0  0  0  0  0  0  0  0
   -7.9874  -27.9989  -34.9125 O   0  0  0  0  0  0  0  0  0  0  0  0
   -5.5152  -29.0820  -34.0342 S   0  0  0  0  0  0  0  0  0  0  0  0
  -19.6149  -24.4427  -40.3270 Cl  0  0  0  0  0  0  0  0  0  0  0  0
  -16.7681  -25.3156  -41.5948 Cl  0  0  0  0  0  0  0  0  0  0  0  0
   -3.1761  -34.0871  -33.3287 H   0  0  0  0  0  0  0  0  0  0  0  0
   -2.0203  -32.1610  -32.3046 H   0  0  0  0  0  0  0  0  0  0  0  0
   -5.2750  -33.7620  -34.6032 H   0  0  0  0  0  0  0  0  0  0  0  0
  -11.5485  -27.0919  -37.5751 H   0  0  0  0  0  0  0  0  0  0  0  0
  -17.2136  -24.0246  -36.1588 H   0  0  0  0  0  0  0  0  0  0  0  0
   -9.4393  -28.2759  -37.0994 H   0  0  0  0  0  0  0  0  0  0  0  0
   -2.9409  -29.8675  -32.5343 H   0  0  0  0  0  0  0  0  0  0  0  0
  -19.2132  -23.9185  -37.5803 H   0  0  0  0  0  0  0  0  0  0  0  0
   -9.1431  -26.2586  -33.3131 H   0  0  0  0  0  0  0  0  0  0  0  0
  -14.8515  -25.2630  -39.5345 H   0  0  0  0  0  0  0  0  0  0  0  0
  -12.3095  -25.2032  -33.0391 H   0  0  0  0  0  0  0  0  0  0  0  0
  -10.6598  -24.6202  -32.7070 H   0  0  0  0  0  0  0  0  0  0  0  0
  -11.6274  -23.8364  -33.9548 H   0  0  0  0  0  0  0  0  0  0  0  0
   -7.6844  -29.1286  -36.6037 H   0  0  0  0  0  0  0  0  0  0  0  0
   -8.7649  -29.8419  -35.3952 H   0  0  0  0  0  0  0  0  0  0  0  0
  -14.6841  -23.9999  -36.2149 H   0  0  0  0  0  0  0  0  0  0  0  0
  -12.9685  -24.5304  -35.4062 H   0  0  0  0  0  0  0  0  0  0  0  0
  1  2  2  0  0  0  0
  1  3  1  0  0  0  0
  2  7  1  0  0  0  0
  3 12  2  0  0  0  0
  4  6  2  0  0  0  0
  4 14  1  0  0  0  0
  5  8  2  0  0  0  0
  5 13  1  0  0  0  0
  6 15  1  0  0  0  0
  7 16  2  0  0  0  0
  8 17  1  0  0  0  0
  9 11  1  0  0  0  0
  9 15  2  0  0  0  0
 10 13  2  0  0  0  0
 10 18  1  0  0  0  0
 11 14  2  0  0  0  0
 11 21  1  0  0  0  0
 12 16  1  0  0  0  0
 12 23  1  0  0  0  0
 13 24  1  0  0  0  0
 14 25  1  0  0  0  0
 15 27  1  0  0  0  0
 16 28  1  0  0  0  0
 17 18  2  0  0  0  0
 17 29  1  0  0  0  0
 18 30  1  0  0  0  0
 19 22  1  0  0  0  0
 19 23  2  0  0  0  0
 19 28  1  0  0  0  0
 20 24  1  0  0  0  0
 20 25  1  0  0  0  0
 20 26  2  0  0  0  0
 22 27  1  0  0  0  0
  1 31  1  0  0  0  0
  2 32  1  0  0  0  0
  3 33  1  0  0  0  0
  4 34  1  0  0  0  0
  5 35  1  0  0  0  0
  6 36  1  0  0  0  0
  7 37  1  0  0  0  0
  8 38  1  0  0  0  0
  9 39  1  0  0  0  0
 10 40  1  0  0  0  0
 21 41  1  0  0  0  0
 21 42  1  0  0  0  0
 21 43  1  0  0  0  0
 22 44  1  0  0  0  0
 22 45  1  0  0  0  0
 24 46  1  0  0  0  0
 25 47  1  0  0  0  0
M  END
> <Name>
Molecule1_Diflapolin

> <SourceTag>
Molecule1_Diflapolin

> <Activity_sEH>
23

> <Activity_FLAP>
0.23

> <Gold.Version>
5.2

> <Gold.Id.Protein>
6HGV|6HGV_protein|mol2

> <Gold.Goldscore.Fitness>
78.6663

> <Gold.Goldscore.Internal.Vdw>
-12.5858

> <Gold.Goldscore.Internal.Torsion>
-4.5981

> <Gold.Goldscore.External.Vdw>
58.0632

> <Gold.Goldscore.Internal.HBond>
0.0000

> <Gold.Goldscore.External.HBond>
5.9079

> <Gold.Goldscore.Internal.Correction>
-10.1055

> <Gold.Goldscore.Hbonds>
donor molecule, donor type, donor heavy atom, donor atom, acceptor molecule, acceptor atom, score
      L1  H    24    46       P1   853  0.66
      L1  H    25    47       P1   853  0.32

> <Gold.Goldscore.Internal.Vdw.Weighted>
-12.5858

> <Gold.Goldscore.Internal.Torsion.Weighted>
-4.5981

> <Gold.Goldscore.External.Vdw.Weighted>
79.8368

> <Gold.Goldscore.Internal.HBond.Weighted>
0.0000

> <Gold.Goldscore.External.HBond.Weighted>
5.9079

> <Gold.Goldscore.Internal.Correction.Weighted>
-10.1055

> <Gold.Protein.RotatedTorsions>
[ 3781 1176 1175 1172 ] final   88.33 input   60.00 | X-H torsion
[ 3847 1247 1246 1244 ] final  -81.34 input   60.00 | X-H torsion
[ 4507 1931 1930 1928 ] final   98.88 input   60.00 | X-H torsion
[ 3677 1070 1069 1066 ] final  164.29 input   60.00 | X-H torsion
[ 3525  925  924  922 ] final  -36.69 input   59.99 | X-H torsion
[ 4531 1957 1955 1953 ] final    8.03 input   60.00 | X-H torsion

> <Gold.Protein.ActiveResidues>
 PHE267  PRO268  MET310  ASP335  TRP336  MET339  TYR343  THR360  PRO361  ILE363 
 PRO371  SER374  ILE375  ASN378  PHE381  TYR383  GLN384  PHE387  LEU408  LEU417 
 MET419  LEU428  TYR466  MET469  ASN472  ASP496  VAL498  LEU499  MET503  HIS524 
 TRP525 

> <Gold.Protein.RotatedAtoms>
   -3.7725  -29.5209  -29.9136 H   0  0  0  0  0  0  0  0  0  0  0  0  # atno 3525 bound_to 925 
  -11.1429  -22.5598  -31.0278 H   0  0  0  0  0  0  0  0  0  0  0  0  # atno 3677 bound_to 1070
  -10.2732  -37.3311  -32.4805 H   0  0  0  0  0  0  0  0  0  0  0  0  # atno 3781 bound_to 1176
  -15.9677  -27.5725  -37.3919 H   0  0  0  0  0  0  0  0  0  0  0  0  # atno 3847 bound_to 1247
  -12.4390  -24.1481  -39.0885 H   0  0  0  0  0  0  0  0  0  0  0  0  # atno 4507 bound_to 1931
   -2.9371  -32.6035  -36.6756 H   0  0  0  0  0  0  0  0  0  0  0  0  # atno 4531 bound_to 1957
  -10.5788  -36.9505  -34.0328 LP  0  0  0  0  0  0  0  0  0  0  0  0  # atno 5205 bound_to 1176
   -9.2571  -36.3483  -33.2865 LP  0  0  0  0  0  0  0  0  0  0  0  0  # atno 5206 bound_to 1176
  -14.4405  -27.7048  -37.9380 LP  0  0  0  0  0  0  0  0  0  0  0  0  # atno 5215 bound_to 1247
  -15.1508  -28.9634  -37.1777 LP  0  0  0  0  0  0  0  0  0  0  0  0  # atno 5216 bound_to 1247
  -13.4654  -25.3830  -39.3522 LP  0  0  0  0  0  0  0  0  0  0  0  0  # atno 5217 bound_to 1931
  -13.2947  -24.2062  -40.4714 LP  0  0  0  0  0  0  0  0  0  0  0  0  # atno 5218 bound_to 1931
  -12.6180  -22.6276  -30.3441 LP  0  0  0  0  0  0  0  0  0  0  0  0  # atno 5224 bound_to 1070
  -12.0988  -23.8493  -31.2951 LP  0  0  0  0  0  0  0  0  0  0  0  0  # atno 5225 bound_to 1070

$$$$
Molecule1_Diflapolin|Lisa_paper2_min|sdf|11|dock4
  -GOLD-  10182017113D 1   1.00000     0.00000

 47 50  0  0  0  0  0  0  0  0  1 V2000
   -3.3452  -33.0303  -33.5545 C   0  0  0  0  0  0  0  0  0  0  0  0
   -2.7417  -31.8975  -33.0194 C   0  0  0  0  0  0  0  0  0  0  0  0
   -4.5559  -32.9305  -34.2461 C   0  0  0  0  0  0  0  0  0  0  0  0
  -10.9331  -27.1240  -36.8962 C   0  0  0  0  0  0  0  0  0  0  0  0
  -16.2886  -23.2512  -38.1316 C   0  0  0  0  0  0  0  0  0  0  0  0
   -9.9703  -28.0024  -36.3990 C   0  0  0  0  0  0  0  0  0  0  0  0
   -3.3296  -30.6379  -33.1601 C   0  0  0  0  0  0  0  0  0  0  0  0
  -17.4511  -23.1186  -38.8908 C   0  0  0  0  0  0  0  0  0  0  0  0
   -9.7636  -26.6491  -34.4082 C   0  0  0  0  0  0  0  0  0  0  0  0
  -15.4532  -24.8910  -39.6969 C   0  0  0  0  0  0  0  0  0  0  0  0
  -10.7263  -25.7708  -34.9054 C   0  0  0  0  0  0  0  0  0  0  0  0
   -5.1714  -31.6697  -34.4026 C   0  0  0  0  0  0  0  0  0  0  0  0
  -15.2896  -24.1374  -38.5346 C   0  0  0  0  0  0  0  0  0  0  0  0
  -11.3111  -26.0081  -36.1494 C   0  0  0  0  0  0  0  0  0  0  0  0
   -9.3856  -27.7650  -35.1551 C   0  0  0  0  0  0  0  0  0  0  0  0
   -4.5458  -30.5451  -33.8558 C   0  0  0  0  0  0  0  0  0  0  0  0
  -17.6147  -23.8721  -40.0531 C   0  0  0  0  0  0  0  0  0  0  0  0
  -16.6157  -24.7584  -40.4562 C   0  0  0  0  0  0  0  0  0  0  0  0
   -6.6346  -30.1347  -35.0104 C   0  0  0  0  0  0  0  0  0  0  0  0
  -13.4016  -25.4459  -37.4657 C   0  0  0  0  0  0  0  0  0  0  0  0
  -11.1115  -24.5837  -34.0836 C   0  0  0  0  0  0  0  0  0  0  0  0
   -7.8331  -29.5082  -35.6094 C   0  0  0  0  0  0  0  0  0  0  0  0
   -6.3667  -31.4185  -35.0604 N   0  0  0  0  0  0  0  0  0  0  0  0
  -14.1102  -24.2711  -37.7644 N   0  0  0  0  0  0  0  0  0  0  0  0
  -12.2756  -25.1391  -36.6653 N   0  0  0  0  0  0  0  0  0  0  0  0
  -13.7076  -26.5735  -37.8398 O   0  0  0  0  0  0  0  0  0  0  0  0
   -8.4417  -28.6270  -34.6672 O   0  0  0  0  0  0  0  0  0  0  0  0
   -5.5022  -29.1499  -34.1896 S   0  0  0  0  0  0  0  0  0  0  0  0
  -19.0787  -23.6652  -40.9488 Cl  0  0  0  0  0  0  0  0  0  0  0  0
  -16.7611  -25.7208  -41.8851 Cl  0  0  0  0  0  0  0  0  0  0  0  0
   -2.8730  -34.0015  -33.4348 H   0  0  0  0  0  0  0  0  0  0  0  0
   -1.8004  -31.9915  -32.4842 H   0  0  0  0  0  0  0  0  0  0  0  0
   -5.0179  -33.8219  -34.6608 H   0  0  0  0  0  0  0  0  0  0  0  0
  -11.3812  -27.3189  -37.8674 H   0  0  0  0  0  0  0  0  0  0  0  0
  -16.1705  -22.6582  -37.2282 H   0  0  0  0  0  0  0  0  0  0  0  0
   -9.6804  -28.8702  -36.9853 H   0  0  0  0  0  0  0  0  0  0  0  0
   -2.8519  -29.7579  -32.7406 H   0  0  0  0  0  0  0  0  0  0  0  0
  -18.2185  -22.4219  -38.5625 H   0  0  0  0  0  0  0  0  0  0  0  0
   -9.3055  -26.4665  -33.4391 H   0  0  0  0  0  0  0  0  0  0  0  0
  -14.6709  -25.5817  -40.0055 H   0  0  0  0  0  0  0  0  0  0  0  0
  -10.5101  -24.5450  -33.1683 H   0  0  0  0  0  0  0  0  0  0  0  0
  -10.9613  -23.6511  -34.6410 H   0  0  0  0  0  0  0  0  0  0  0  0
  -12.1716  -24.6226  -33.8050 H   0  0  0  0  0  0  0  0  0  0  0  0
   -7.5867  -28.9255  -36.5133 H   0  0  0  0  0  0  0  0  0  0  0  0
   -8.5813  -30.2610  -35.9100 H   0  0  0  0  0  0  0  0  0  0  0  0
  -13.7289  -23.4104  -37.3799 H   0  0  0  0  0  0  0  0  0  0  0  0
  -12.1624  -24.1459  -36.4397 H   0  0  0  0  0  0  0  0  0  0  0  0
  1  2  2  0  0  0  0
  1  3  1  0  0  0  0
  2  7  1  0  0  0  0
  3 12  2  0  0  0  0
  4  6  2  0  0  0  0
  4 14  1  0  0  0  0
  5  8  2  0  0  0  0
  5 13  1  0  0  0  0
  6 15  1  0  0  0  0
  7 16  2  0  0  0  0
  8 17  1  0  0  0  0
  9 11  1  0  0  0  0
  9 15  2  0  0  0  0
 10 13  2  0  0  0  0
 10 18  1  0  0  0  0
 11 14  2  0  0  0  0
 11 21  1  0  0  0  0
 12 16  1  0  0  0  0
 12 23  1  0  0  0  0
 13 24  1  0  0  0  0
 14 25  1  0  0  0  0
 15 27  1  0  0  0  0
 16 28  1  0  0  0  0
 17 18  2  0  0  0  0
 17 29  1  0  0  0  0
 18 30  1  0  0  0  0
 19 22  1  0  0  0  0
 19 23  2  0  0  0  0
 19 28  1  0  0  0  0
 20 24  1  0  0  0  0
 20 25  1  0  0  0  0
 20 26  2  0  0  0  0
 22 27  1  0  0  0  0
  1 31  1  0  0  0  0
  2 32  1  0  0  0  0
  3 33  1  0  0  0  0
  4 34  1  0  0  0  0
  5 35  1  0  0  0  0
  6 36  1  0  0  0  0
  7 37  1  0  0  0  0
  8 38  1  0  0  0  0
  9 39  1  0  0  0  0
 10 40  1  0  0  0  0
 21 41  1  0  0  0  0
 21 42  1  0  0  0  0
 21 43  1  0  0  0  0
 22 44  1  0  0  0  0
 22 45  1  0  0  0  0
 24 46  1  0  0  0  0
 25 47  1  0  0  0  0
M  END
> <Name>
Molecule1_Diflapolin

> <SourceTag>
Molecule1_Diflapolin

> <Activity_sEH>
23

> <Activity_FLAP>
0.23

> <Gold.Version>
5.2

> <Gold.Id.Protein>
6HGV|6HGV_protein|mol2

> <Gold.Goldscore.Fitness>
78.5460

> <Gold.Goldscore.Internal.Vdw>
-8.0884

> <Gold.Goldscore.Internal.Torsion>
-6.3311

> <Gold.Goldscore.External.Vdw>
54.2579

> <Gold.Goldscore.Internal.HBond>
0.0000

> <Gold.Goldscore.External.HBond>
7.0273

> <Gold.Goldscore.Internal.Correction>
-11.3336

> <Gold.Goldscore.Hbonds>
donor molecule, donor type, donor heavy atom, donor atom, acceptor molecule, acceptor atom, score
      P1  H  1247  3847       L1    26  0.09
      L1  H    24    46       P1   854  0.80
      L1  H    25    47       P1   854  0.34

> <Gold.Goldscore.Internal.Vdw.Weighted>
-8.0884

> <Gold.Goldscore.Internal.Torsion.Weighted>
-6.3311

> <Gold.Goldscore.External.Vdw.Weighted>
74.6047

> <Gold.Goldscore.Internal.HBond.Weighted>
0.0000

> <Gold.Goldscore.External.HBond.Weighted>
7.0273

> <Gold.Goldscore.Internal.Correction.Weighted>
-11.3336

> <Gold.Protein.RotatedTorsions>
[ 3781 1176 1175 1172 ] final -173.42 input   60.00 | X-H torsion
[ 3847 1247 1246 1244 ] final  146.79 input   60.00 | X-H torsion
[ 4507 1931 1930 1928 ] final  136.98 input   60.00 | X-H torsion
[ 3677 1070 1069 1066 ] final -164.55 input   60.00 | X-H torsion
[ 3525  925  924  922 ] final  -19.16 input   59.99 | X-H torsion
[ 4531 1957 1955 1953 ] final   -3.04 input   60.00 | X-H torsion

> <Gold.Protein.ActiveResidues>
 PHE267  PRO268  MET310  ASP335  TRP336  MET339  TYR343  THR360  PRO361  ILE363 
 PRO371  SER374  ILE375  ASN378  PHE381  TYR383  GLN384  PHE387  LEU408  LEU417 
 MET419  LEU428  TYR466  MET469  ASN472  ASP496  VAL498  LEU499  MET503  HIS524 
 TRP525 

> <Gold.Protein.RotatedAtoms>
   -3.7300  -29.5136  -30.1956 H   0  0  0  0  0  0  0  0  0  0  0  0  # atno 3525 bound_to 925 
  -11.1054  -22.9875  -31.2898 H   0  0  0  0  0  0  0  0  0  0  0  0  # atno 3677 bound_to 1070
   -9.2521  -36.4724  -32.9544 H   0  0  0  0  0  0  0  0  0  0  0  0  # atno 3781 bound_to 1176
  -14.3656  -27.8806  -37.9029 H   0  0  0  0  0  0  0  0  0  0  0  0  # atno 3847 bound_to 1247
  -12.5117  -23.8236  -39.6012 H   0  0  0  0  0  0  0  0  0  0  0  0  # atno 4507 bound_to 1931
   -2.8230  -32.4649  -36.6949 H   0  0  0  0  0  0  0  0  0  0  0  0  # atno 4531 bound_to 1957
  -10.5419  -37.4288  -32.6902 LP  0  0  0  0  0  0  0  0  0  0  0  0  # atno 5205 bound_to 1176
  -10.3222  -36.7348  -34.1519 LP  0  0  0  0  0  0  0  0  0  0  0  0  # atno 5206 bound_to 1176
  -15.3334  -28.9283  -37.1195 LP  0  0  0  0  0  0  0  0  0  0  0  0  # atno 5215 bound_to 1247
  -15.8713  -27.4296  -37.4817 LP  0  0  0  0  0  0  0  0  0  0  0  0  # atno 5216 bound_to 1247
  -13.0745  -25.1892  -38.9182 LP  0  0  0  0  0  0  0  0  0  0  0  0  # atno 5217 bound_to 1931
  -13.6125  -24.7267  -40.3891 LP  0  0  0  0  0  0  0  0  0  0  0  0  # atno 5218 bound_to 1931
  -12.2349  -22.2964  -30.3439 LP  0  0  0  0  0  0  0  0  0  0  0  0  # atno 5224 bound_to 1070
  -12.5197  -23.7498  -31.0316 LP  0  0  0  0  0  0  0  0  0  0  0  0  # atno 5225 bound_to 1070

$$$$
Molecule1_Diflapolin|Lisa_paper2_min|sdf|11|dock8
  -GOLD-  10182017123D 1   1.00000     0.00000

 47 50  0  0  0  0  0  0  0  0  1 V2000
   -3.4796  -33.0105  -33.4734 C   0  0  0  0  0  0  0  0  0  0  0  0
   -2.9299  -31.9174  -32.8128 C   0  0  0  0  0  0  0  0  0  0  0  0
   -4.6450  -32.8693  -34.2325 C   0  0  0  0  0  0  0  0  0  0  0  0
  -11.1612  -27.0998  -36.6308 C   0  0  0  0  0  0  0  0  0  0  0  0
  -15.8430  -24.8964  -39.1380 C   0  0  0  0  0  0  0  0  0  0  0  0
   -9.9530  -27.7576  -36.4006 C   0  0  0  0  0  0  0  0  0  0  0  0
   -3.5277  -30.6570  -32.8920 C   0  0  0  0  0  0  0  0  0  0  0  0
  -16.9766  -24.8166  -39.9468 C   0  0  0  0  0  0  0  0  0  0  0  0
   -9.5544  -26.3524  -34.4761 C   0  0  0  0  0  0  0  0  0  0  0  0
  -17.1989  -24.4368  -37.1920 C   0  0  0  0  0  0  0  0  0  0  0  0
  -10.7627  -25.6946  -34.7063 C   0  0  0  0  0  0  0  0  0  0  0  0
   -5.2693  -31.6069  -34.3293 C   0  0  0  0  0  0  0  0  0  0  0  0
  -15.9541  -24.7065  -37.7606 C   0  0  0  0  0  0  0  0  0  0  0  0
  -11.5661  -26.0682  -35.7836 C   0  0  0  0  0  0  0  0  0  0  0  0
   -9.1495  -27.3840  -35.3234 C   0  0  0  0  0  0  0  0  0  0  0  0
   -4.6981  -30.5225  -33.6561 C   0  0  0  0  0  0  0  0  0  0  0  0
  -18.2213  -24.5469  -39.3782 C   0  0  0  0  0  0  0  0  0  0  0  0
  -18.3325  -24.3570  -38.0007 C   0  0  0  0  0  0  0  0  0  0  0  0
   -6.7150  -30.0444  -34.9086 C   0  0  0  0  0  0  0  0  0  0  0  0
  -13.7212  -25.6746  -37.0563 C   0  0  0  0  0  0  0  0  0  0  0  0
  -11.1707  -24.5933  -33.7825 C   0  0  0  0  0  0  0  0  0  0  0  0
   -7.8824  -29.3854  -35.5334 C   0  0  0  0  0  0  0  0  0  0  0  0
   -6.4238  -31.3172  -35.0418 N   0  0  0  0  0  0  0  0  0  0  0  0
  -14.8040  -24.7883  -36.9405 N   0  0  0  0  0  0  0  0  0  0  0  0
  -12.7786  -25.4202  -36.0318 N   0  0  0  0  0  0  0  0  0  0  0  0
  -13.6036  -26.5425  -37.9153 O   0  0  0  0  0  0  0  0  0  0  0  0
   -7.9647  -28.0297  -35.0973 O   0  0  0  0  0  0  0  0  0  0  0  0
   -5.6534  -29.1157  -33.9409 S   0  0  0  0  0  0  0  0  0  0  0  0
  -19.5875  -24.4576  -40.4336 Cl  0  0  0  0  0  0  0  0  0  0  0  0
  -19.8465  -24.0179  -37.2378 Cl  0  0  0  0  0  0  0  0  0  0  0  0
   -3.0006  -33.9830  -33.4000 H   0  0  0  0  0  0  0  0  0  0  0  0
   -2.0235  -32.0432  -32.2265 H   0  0  0  0  0  0  0  0  0  0  0  0
   -5.0651  -33.7299  -34.7453 H   0  0  0  0  0  0  0  0  0  0  0  0
  -11.7786  -27.3991  -37.4742 H   0  0  0  0  0  0  0  0  0  0  0  0
  -14.8779  -25.1086  -39.5911 H   0  0  0  0  0  0  0  0  0  0  0  0
   -9.6433  -28.5607  -37.0639 H   0  0  0  0  0  0  0  0  0  0  0  0
   -3.0920  -29.8080  -32.3744 H   0  0  0  0  0  0  0  0  0  0  0  0
  -16.8715  -24.9688  -41.0181 H   0  0  0  0  0  0  0  0  0  0  0  0
   -8.9256  -26.0631  -33.6375 H   0  0  0  0  0  0  0  0  0  0  0  0
  -17.2791  -24.2884  -36.1169 H   0  0  0  0  0  0  0  0  0  0  0  0
  -10.3575  -24.3626  -33.0851 H   0  0  0  0  0  0  0  0  0  0  0  0
  -11.4233  -23.6828  -34.3395 H   0  0  0  0  0  0  0  0  0  0  0  0
  -12.0601  -24.8714  -33.2040 H   0  0  0  0  0  0  0  0  0  0  0  0
   -7.8177  -29.3873  -36.6347 H   0  0  0  0  0  0  0  0  0  0  0  0
   -8.8271  -29.8900  -35.2691 H   0  0  0  0  0  0  0  0  0  0  0  0
  -14.7557  -24.1232  -36.1728 H   0  0  0  0  0  0  0  0  0  0  0  0
  -13.0284  -24.6589  -35.3930 H   0  0  0  0  0  0  0  0  0  0  0  0
  1  2  2  0  0  0  0
  1  3  1  0  0  0  0
  2  7  1  0  0  0  0
  3 12  2  0  0  0  0
  4  6  2  0  0  0  0
  4 14  1  0  0  0  0
  5  8  2  0  0  0  0
  5 13  1  0  0  0  0
  6 15  1  0  0  0  0
  7 16  2  0  0  0  0
  8 17  1  0  0  0  0
  9 11  1  0  0  0  0
  9 15  2  0  0  0  0
 10 13  2  0  0  0  0
 10 18  1  0  0  0  0
 11 14  2  0  0  0  0
 11 21  1  0  0  0  0
 12 16  1  0  0  0  0
 12 23  1  0  0  0  0
 13 24  1  0  0  0  0
 14 25  1  0  0  0  0
 15 27  1  0  0  0  0
 16 28  1  0  0  0  0
 17 18  2  0  0  0  0
 17 29  1  0  0  0  0
 18 30  1  0  0  0  0
 19 22  1  0  0  0  0
 19 23  2  0  0  0  0
 19 28  1  0  0  0  0
 20 24  1  0  0  0  0
 20 25  1  0  0  0  0
 20 26  2  0  0  0  0
 22 27  1  0  0  0  0
  1 31  1  0  0  0  0
  2 32  1  0  0  0  0
  3 33  1  0  0  0  0
  4 34  1  0  0  0  0
  5 35  1  0  0  0  0
  6 36  1  0  0  0  0
  7 37  1  0  0  0  0
  8 38  1  0  0  0  0
  9 39  1  0  0  0  0
 10 40  1  0  0  0  0
 21 41  1  0  0  0  0
 21 42  1  0  0  0  0
 21 43  1  0  0  0  0
 22 44  1  0  0  0  0
 22 45  1  0  0  0  0
 24 46  1  0  0  0  0
 25 47  1  0  0  0  0
M  END
> <Name>
Molecule1_Diflapolin

> <SourceTag>
Molecule1_Diflapolin

> <Activity_sEH>
23

> <Activity_FLAP>
0.23

> <Gold.Version>
5.2

> <Gold.Id.Protein>
6HGV|6HGV_protein|mol2

> <Gold.Goldscore.Fitness>
76.6406

> <Gold.Goldscore.Internal.Vdw>
-13.6335

> <Gold.Goldscore.Internal.Torsion>
-4.5650

> <Gold.Goldscore.External.Vdw>
57.9965

> <Gold.Goldscore.Internal.HBond>
0.0000

> <Gold.Goldscore.External.HBond>
4.9885

> <Gold.Goldscore.Internal.Correction>
-10.1055

> <Gold.Goldscore.Hbonds>
donor molecule, donor type, donor heavy atom, donor atom, acceptor molecule, acceptor atom, score
      L1  H    24    46       P1   853  0.56
      L1  H    25    47       P1   853  0.27

> <Gold.Goldscore.Internal.Vdw.Weighted>
-13.6335

> <Gold.Goldscore.Internal.Torsion.Weighted>
-4.5650

> <Gold.Goldscore.External.Vdw.Weighted>
79.7452

> <Gold.Goldscore.Internal.HBond.Weighted>
0.0000

> <Gold.Goldscore.External.HBond.Weighted>
4.9885

> <Gold.Goldscore.Internal.Correction.Weighted>
-10.1055

> <Gold.Protein.RotatedTorsions>
[ 3781 1176 1175 1172 ] final  -18.82 input   60.00 | X-H torsion
[ 3847 1247 1246 1244 ] final  -87.07 input   60.00 | X-H torsion
[ 4507 1931 1930 1928 ] final   92.55 input   60.00 | X-H torsion
[ 3677 1070 1069 1066 ] final  134.78 input   60.00 | X-H torsion
[ 3525  925  924  922 ] final  -32.52 input   59.99 | X-H torsion
[ 4531 1957 1955 1953 ] final   14.22 input   60.00 | X-H torsion

> <Gold.Protein.ActiveResidues>
 PHE267  PRO268  MET310  ASP335  TRP336  MET339  TYR343  THR360  PRO361  ILE363 
 PRO371  SER374  ILE375  ASN378  PHE381  TYR383  GLN384  PHE387  LEU408  LEU417 
 MET419  LEU428  TYR466  MET469  ASN472  ASP496  VAL498  LEU499  MET503  HIS524 
 TRP525 

> <Gold.Protein.RotatedAtoms>
   -3.7696  -29.5159  -29.9814 H   0  0  0  0  0  0  0  0  0  0  0  0  # atno 3525 bound_to 925 
  -11.3942  -22.2734  -30.7411 H   0  0  0  0  0  0  0  0  0  0  0  0  # atno 3677 bound_to 1070
  -10.6902  -37.0756  -33.9055 H   0  0  0  0  0  0  0  0  0  0  0  0  # atno 3781 bound_to 1176
  -15.9232  -27.5030  -37.4359 H   0  0  0  0  0  0  0  0  0  0  0  0  # atno 3847 bound_to 1247
  -12.4536  -24.2250  -39.0212 H   0  0  0  0  0  0  0  0  0  0  0  0  # atno 4507 bound_to 1931
   -2.9889  -32.6900  -36.6672 H   0  0  0  0  0  0  0  0  0  0  0  0  # atno 4531 bound_to 1957
   -9.3155  -36.3125  -33.4861 LP  0  0  0  0  0  0  0  0  0  0  0  0  # atno 5205 bound_to 1176
  -10.1004  -37.2436  -32.3982 LP  0  0  0  0  0  0  0  0  0  0  0  0  # atno 5206 bound_to 1176
  -14.3969  -27.7870  -37.9236 LP  0  0  0  0  0  0  0  0  0  0  0  0  # atno 5215 bound_to 1247
  -15.2392  -28.9511  -37.1477 LP  0  0  0  0  0  0  0  0  0  0  0  0  # atno 5216 bound_to 1247
  -13.5176  -25.3820  -39.4422 LP  0  0  0  0  0  0  0  0  0  0  0  0  # atno 5217 bound_to 1931
  -13.2279  -24.1296  -40.4493 LP  0  0  0  0  0  0  0  0  0  0  0  0  # atno 5218 bound_to 1931
  -12.8048  -23.0451  -30.4901 LP  0  0  0  0  0  0  0  0  0  0  0  0  # atno 5224 bound_to 1070
  -11.6589  -23.7201  -31.4378 LP  0  0  0  0  0  0  0  0  0  0  0  0  # atno 5225 bound_to 1070

$$$$
Molecule1_Diflapolin|Lisa_paper2_min|sdf|11|dock9
  -GOLD-  10182017123D 1   1.00000     0.00000

 47 50  0  0  0  0  0  0  0  0  1 V2000
   -2.8259  -31.8541  -32.7490 C   0  0  0  0  0  0  0  0  0  0  0  0
   -3.1926  -33.1363  -33.1428 C   0  0  0  0  0  0  0  0  0  0  0  0
   -3.6137  -30.7522  -33.0948 C   0  0  0  0  0  0  0  0  0  0  0  0
  -10.8169  -27.2687  -36.7628 C   0  0  0  0  0  0  0  0  0  0  0  0
  -16.4585  -25.4394  -37.5774 C   0  0  0  0  0  0  0  0  0  0  0  0
   -9.7764  -28.0902  -36.3292 C   0  0  0  0  0  0  0  0  0  0  0  0
   -4.3527  -33.3521  -33.8909 C   0  0  0  0  0  0  0  0  0  0  0  0
  -17.7282  -25.3868  -38.1523 C   0  0  0  0  0  0  0  0  0  0  0  0
   -9.4166  -26.6350  -34.4345 C   0  0  0  0  0  0  0  0  0  0  0  0
  -15.7785  -23.5388  -38.9049 C   0  0  0  0  0  0  0  0  0  0  0  0
  -10.4570  -25.8134  -34.8681 C   0  0  0  0  0  0  0  0  0  0  0  0
   -4.7910  -30.9423  -33.8502 C   0  0  0  0  0  0  0  0  0  0  0  0
  -15.4836  -24.5155  -37.9536 C   0  0  0  0  0  0  0  0  0  0  0  0
  -11.1572  -26.1301  -36.0322 C   0  0  0  0  0  0  0  0  0  0  0  0
   -9.0762  -27.7735  -35.1652 C   0  0  0  0  0  0  0  0  0  0  0  0
   -5.1391  -32.2408  -34.2349 C   0  0  0  0  0  0  0  0  0  0  0  0
  -18.0231  -24.4103  -39.1035 C   0  0  0  0  0  0  0  0  0  0  0  0
  -17.0482  -23.4862  -39.4798 C   0  0  0  0  0  0  0  0  0  0  0  0
   -6.6510  -30.4877  -34.9458 C   0  0  0  0  0  0  0  0  0  0  0  0
  -13.4356  -25.7068  -37.0561 C   0  0  0  0  0  0  0  0  0  0  0  0
  -10.7993  -24.6003  -34.0655 C   0  0  0  0  0  0  0  0  0  0  0  0
   -7.7692  -29.7244  -35.5413 C   0  0  0  0  0  0  0  0  0  0  0  0
   -5.6665  -29.9494  -34.2651 N   0  0  0  0  0  0  0  0  0  0  0  0
  -14.1960  -24.5688  -37.3695 N   0  0  0  0  0  0  0  0  0  0  0  0
  -12.2010  -25.3187  -36.4837 N   0  0  0  0  0  0  0  0  0  0  0  0
  -13.7839  -26.8675  -37.2475 O   0  0  0  0  0  0  0  0  0  0  0  0
   -8.0560  -28.5799  -34.7397 O   0  0  0  0  0  0  0  0  0  0  0  0
   -6.6063  -32.1867  -35.1389 S   0  0  0  0  0  0  0  0  0  0  0  0
  -19.6133  -24.3992  -39.7815 Cl  0  0  0  0  0  0  0  0  0  0  0  0
  -17.3524  -22.2544  -40.6543 Cl  0  0  0  0  0  0  0  0  0  0  0  0
   -1.9200  -31.7058  -32.1676 H   0  0  0  0  0  0  0  0  0  0  0  0
   -2.5696  -33.9828  -32.8662 H   0  0  0  0  0  0  0  0  0  0  0  0
   -3.3182  -29.7551  -32.7808 H   0  0  0  0  0  0  0  0  0  0  0  0
  -11.3547  -27.5252  -37.6721 H   0  0  0  0  0  0  0  0  0  0  0  0
  -16.2396  -26.2037  -36.8359 H   0  0  0  0  0  0  0  0  0  0  0  0
   -9.5163  -28.9760  -36.9025 H   0  0  0  0  0  0  0  0  0  0  0  0
   -4.6331  -34.3562  -34.1937 H   0  0  0  0  0  0  0  0  0  0  0  0
  -18.4761  -26.1140  -37.8460 H   0  0  0  0  0  0  0  0  0  0  0  0
   -8.8685  -26.3905  -33.5278 H   0  0  0  0  0  0  0  0  0  0  0  0
  -15.0134  -22.8215  -39.1953 H   0  0  0  0  0  0  0  0  0  0  0  0
  -10.7090  -23.6994  -34.6829 H   0  0  0  0  0  0  0  0  0  0  0  0
  -11.8238  -24.6583  -33.6782 H   0  0  0  0  0  0  0  0  0  0  0  0
  -10.1349  -24.4990  -33.1987 H   0  0  0  0  0  0  0  0  0  0  0  0
   -7.5354  -29.3773  -36.5621 H   0  0  0  0  0  0  0  0  0  0  0  0
   -8.6868  -30.3324  -35.6141 H   0  0  0  0  0  0  0  0  0  0  0  0
  -13.7686  -23.6726  -37.1498 H   0  0  0  0  0  0  0  0  0  0  0  0
  -12.0650  -24.3072  -36.3924 H   0  0  0  0  0  0  0  0  0  0  0  0
  1  2  2  0  0  0  0
  1  3  1  0  0  0  0
  2  7  1  0  0  0  0
  3 12  2  0  0  0  0
  4  6  2  0  0  0  0
  4 14  1  0  0  0  0
  5  8  2  0  0  0  0
  5 13  1  0  0  0  0
  6 15  1  0  0  0  0
  7 16  2  0  0  0  0
  8 17  1  0  0  0  0
  9 11  1  0  0  0  0
  9 15  2  0  0  0  0
 10 13  2  0  0  0  0
 10 18  1  0  0  0  0
 11 14  2  0  0  0  0
 11 21  1  0  0  0  0
 12 16  1  0  0  0  0
 12 23  1  0  0  0  0
 13 24  1  0  0  0  0
 14 25  1  0  0  0  0
 15 27  1  0  0  0  0
 16 28  1  0  0  0  0
 17 18  2  0  0  0  0
 17 29  1  0  0  0  0
 18 30  1  0  0  0  0
 19 22  1  0  0  0  0
 19 23  2  0  0  0  0
 19 28  1  0  0  0  0
 20 24  1  0  0  0  0
 20 25  1  0  0  0  0
 20 26  2  0  0  0  0
 22 27  1  0  0  0  0
  1 31  1  0  0  0  0
  2 32  1  0  0  0  0
  3 33  1  0  0  0  0
  4 34  1  0  0  0  0
  5 35  1  0  0  0  0
  6 36  1  0  0  0  0
  7 37  1  0  0  0  0
  8 38  1  0  0  0  0
  9 39  1  0  0  0  0
 10 40  1  0  0  0  0
 21 41  1  0  0  0  0
 21 42  1  0  0  0  0
 21 43  1  0  0  0  0
 22 44  1  0  0  0  0
 22 45  1  0  0  0  0
 24 46  1  0  0  0  0
 25 47  1  0  0  0  0
M  END
> <Name>
Molecule1_Diflapolin

> <SourceTag>
Molecule1_Diflapolin

> <Activity_sEH>
23

> <Activity_FLAP>
0.23

> <Gold.Version>
5.2

> <Gold.Id.Protein>
6HGV|6HGV_protein|mol2

> <Gold.Goldscore.Fitness>
75.5897

> <Gold.Goldscore.Internal.Vdw>
-10.1938

> <Gold.Goldscore.Internal.Torsion>
-6.2227

> <Gold.Goldscore.External.Vdw>
55.6655

> <Gold.Goldscore.Internal.HBond>
0.0000

> <Gold.Goldscore.External.HBond>
5.3607

> <Gold.Goldscore.Internal.Correction>
-10.1055

> <Gold.Goldscore.Hbonds>
donor molecule, donor type, donor heavy atom, donor atom, acceptor molecule, acceptor atom, score
      P1  H  1247  3847       L1    26  0.06
      L1  H    24    46       P1   854  0.64
      L1  H    25    47       P1   854  0.23

> <Gold.Goldscore.Internal.Vdw.Weighted>
-10.1938

> <Gold.Goldscore.Internal.Torsion.Weighted>
-6.2227

> <Gold.Goldscore.External.Vdw.Weighted>
76.5401

> <Gold.Goldscore.Internal.HBond.Weighted>
0.0000

> <Gold.Goldscore.External.HBond.Weighted>
5.3607

> <Gold.Goldscore.Internal.Correction.Weighted>
-10.1055

> <Gold.Protein.RotatedTorsions>
[ 3781 1176 1175 1172 ] final -102.94 input   60.00 | X-H torsion
[ 3847 1247 1246 1244 ] final  144.82 input   60.00 | X-H torsion
[ 4507 1931 1930 1928 ] final  -63.12 input   60.00 | X-H torsion
[ 3677 1070 1069 1066 ] final  -59.16 input   60.00 | X-H torsion
[ 3525  925  924  922 ] final   -6.78 input   59.99 | X-H torsion
[ 4531 1957 1955 1953 ] final   -2.54 input   60.00 | X-H torsion

> <Gold.Protein.ActiveResidues>
 PHE267  PRO268  MET310  ASP335  TRP336  MET339  TYR343  THR360  PRO361  ILE363 
 PRO371  SER374  ILE375  ASN378  PHE381  TYR383  GLN384  PHE387  LEU408  LEU417 
 MET419  LEU428  TYR466  MET469  ASN472  ASP496  VAL498  LEU499  MET503  HIS524 
 TRP525 

> <Gold.Protein.RotatedAtoms>
   -3.6538  -29.5298  -30.3819 H   0  0  0  0  0  0  0  0  0  0  0  0  # atno 3525 bound_to 925 
  -12.3326  -23.8218  -31.1615 H   0  0  0  0  0  0  0  0  0  0  0  0  # atno 3677 bound_to 1070
   -9.6554  -36.3681  -33.9513 H   0  0  0  0  0  0  0  0  0  0  0  0  # atno 3781 bound_to 1176
  -14.3554  -27.9103  -37.8955 H   0  0  0  0  0  0  0  0  0  0  0  0  # atno 3847 bound_to 1247
  -13.6882  -25.1971  -39.9599 H   0  0  0  0  0  0  0  0  0  0  0  0  # atno 4507 bound_to 1931
   -2.8287  -32.4707  -36.6939 H   0  0  0  0  0  0  0  0  0  0  0  0  # atno 4531 bound_to 1957
   -9.6213  -36.9160  -32.4194 LP  0  0  0  0  0  0  0  0  0  0  0  0  # atno 5205 bound_to 1176
  -10.8367  -37.3526  -33.4188 LP  0  0  0  0  0  0  0  0  0  0  0  0  # atno 5206 bound_to 1176
  -15.3633  -28.9189  -37.1113 LP  0  0  0  0  0  0  0  0  0  0  0  0  # atno 5215 bound_to 1247
  -15.8515  -27.4092  -37.4972 LP  0  0  0  0  0  0  0  0  0  0  0  0  # atno 5216 bound_to 1247
  -12.8383  -23.8229  -40.1530 LP  0  0  0  0  0  0  0  0  0  0  0  0  # atno 5217 bound_to 1931
  -12.6639  -24.7098  -38.7930 LP  0  0  0  0  0  0  0  0  0  0  0  0  # atno 5218 bound_to 1931
  -11.0864  -22.7755  -31.1813 LP  0  0  0  0  0  0  0  0  0  0  0  0  # atno 5224 bound_to 1070
  -12.4323  -22.4306  -30.3232 LP  0  0  0  0  0  0  0  0  0  0  0  0  # atno 5225 bound_to 1070

$$$$
MSC-065|Lisa_paper2_min|sdf|12|dock2
  -GOLD-  10182017133D 1   1.00000     0.00000

 63 66  0  0  0  0  0  0  0  0  1 V2000
   -3.4565  -30.0452  -32.7378 C   0  0  0  0  0  0  0  0  0  0  0  0
   -3.9292  -31.3558  -32.7566 C   0  0  0  0  0  0  0  0  0  0  0  0
   -4.2093  -29.0067  -33.2936 C   0  0  0  0  0  0  0  0  0  0  0  0
   -5.1663  -31.6719  -33.3292 C   0  0  0  0  0  0  0  0  0  0  0  0
  -11.8535  -26.7213  -37.0164 C   0  0  0  0  0  0  0  0  0  0  0  0
  -17.8970  -25.0547  -35.5098 C   0  0  0  0  0  0  0  0  0  0  0  0
  -10.6252  -27.2801  -36.6636 C   0  0  0  0  0  0  0  0  0  0  0  0
  -19.2856  -25.1040  -35.3889 C   0  0  0  0  0  0  0  0  0  0  0  0
  -11.6591  -25.1449  -35.1959 C   0  0  0  0  0  0  0  0  0  0  0  0
  -18.1219  -24.3751  -37.8172 C   0  0  0  0  0  0  0  0  0  0  0  0
  -10.4308  -25.7037  -34.8431 C   0  0  0  0  0  0  0  0  0  0  0  0
   -5.4547  -29.3068  -33.8735 C   0  0  0  0  0  0  0  0  0  0  0  0
   -5.9150  -30.6241  -33.8845 C   0  0  0  0  0  0  0  0  0  0  0  0
  -12.3705  -25.6536  -36.2826 C   0  0  0  0  0  0  0  0  0  0  0  0
  -17.3150  -24.6901  -36.7240 C   0  0  0  0  0  0  0  0  0  0  0  0
   -9.9139  -26.7714  -35.5769 C   0  0  0  0  0  0  0  0  0  0  0  0
  -20.0926  -24.7889  -36.4822 C   0  0  0  0  0  0  0  0  0  0  0  0
  -19.5106  -24.4244  -37.6964 C   0  0  0  0  0  0  0  0  0  0  0  0
   -7.3476  -29.2390  -34.8430 C   0  0  0  0  0  0  0  0  0  0  0  0
   -8.0187  -31.6325  -34.7788 C   0  0  0  0  0  0  0  0  0  0  0  0
  -14.9153  -25.4364  -36.2973 C   0  0  0  0  0  0  0  0  0  0  0  0
   -9.6828  -25.1466  -33.6771 C   0  0  0  0  0  0  0  0  0  0  0  0
   -9.5005  -34.0940  -34.3831 C   0  0  0  0  0  0  0  0  0  0  0  0
   -7.9933  -33.8688  -36.3799 C   0  0  0  0  0  0  0  0  0  0  0  0
   -7.2291  -35.1780  -34.3774 C   0  0  0  0  0  0  0  0  0  0  0  0
   -8.5469  -28.7172  -35.5381 C   0  0  0  0  0  0  0  0  0  0  0  0
   -8.0524  -33.9840  -34.8581 C   0  0  0  0  0  0  0  0  0  0  0  0
   -6.3548  -28.4663  -34.4710 N   0  0  0  0  0  0  0  0  0  0  0  0
   -7.1502  -30.5664  -34.5190 N   0  0  0  0  0  0  0  0  0  0  0  0
  -13.5991  -25.0948  -36.6358 N   0  0  0  0  0  0  0  0  0  0  0  0
  -15.9038  -24.6396  -36.8461 N   0  0  0  0  0  0  0  0  0  0  0  0
   -9.0844  -31.4602  -35.3470 O   0  0  0  0  0  0  0  0  0  0  0  0
   -8.7102  -27.3315  -35.2447 O   0  0  0  0  0  0  0  0  0  0  0  0
   -7.4840  -32.7896  -34.3132 O   0  0  0  0  0  0  0  0  0  0  0  0
  -15.1285  -26.6678  -35.1666 S   0  0  0  0  0  0  0  0  0  0  0  0
  -21.8061  -24.8716  -36.2701 Cl  0  0  0  0  0  0  0  0  0  0  0  0
  -20.4569  -24.0251  -39.0871 Cl  0  0  0  0  0  0  0  0  0  0  0  0
   -2.4923  -29.8266  -32.2869 H   0  0  0  0  0  0  0  0  0  0  0  0
   -3.3269  -32.1481  -32.3191 H   0  0  0  0  0  0  0  0  0  0  0  0
   -3.8343  -27.9880  -33.2757 H   0  0  0  0  0  0  0  0  0  0  0  0
   -5.5112  -32.6991  -33.3311 H   0  0  0  0  0  0  0  0  0  0  0  0
  -12.3992  -27.1259  -37.8651 H   0  0  0  0  0  0  0  0  0  0  0  0
  -17.2774  -25.3006  -34.6512 H   0  0  0  0  0  0  0  0  0  0  0  0
  -10.2281  -28.1117  -37.2395 H   0  0  0  0  0  0  0  0  0  0  0  0
  -19.7219  -25.3886  -34.4346 H   0  0  0  0  0  0  0  0  0  0  0  0
  -12.0610  -24.3122  -34.6227 H   0  0  0  0  0  0  0  0  0  0  0  0
  -17.6621  -24.0927  -38.7623 H   0  0  0  0  0  0  0  0  0  0  0  0
  -10.1735  -24.2377  -33.3097 H   0  0  0  0  0  0  0  0  0  0  0  0
   -9.6312  -25.8720  -32.8556 H   0  0  0  0  0  0  0  0  0  0  0  0
   -8.6492  -24.8997  -33.9501 H   0  0  0  0  0  0  0  0  0  0  0  0
   -9.9389  -35.0510  -34.6877 H   0  0  0  0  0  0  0  0  0  0  0  0
   -9.5754  -34.0081  -33.2941 H   0  0  0  0  0  0  0  0  0  0  0  0
  -10.1210  -33.3118  -34.8355 H   0  0  0  0  0  0  0  0  0  0  0  0
   -8.0490  -34.8580  -36.8484 H   0  0  0  0  0  0  0  0  0  0  0  0
   -7.0427  -33.4281  -36.7012 H   0  0  0  0  0  0  0  0  0  0  0  0
   -8.8104  -33.2536  -36.7705 H   0  0  0  0  0  0  0  0  0  0  0  0
   -7.6649  -36.1204  -34.7284 H   0  0  0  0  0  0  0  0  0  0  0  0
   -6.1943  -35.1229  -34.7310 H   0  0  0  0  0  0  0  0  0  0  0  0
   -7.2206  -35.2301  -33.2826 H   0  0  0  0  0  0  0  0  0  0  0  0
   -8.4696  -28.8299  -36.6320 H   0  0  0  0  0  0  0  0  0  0  0  0
   -9.4615  -29.2470  -35.2253 H   0  0  0  0  0  0  0  0  0  0  0  0
  -13.5495  -24.2589  -37.2308 H   0  0  0  0  0  0  0  0  0  0  0  0
  -15.5631  -23.8220  -37.3459 H   0  0  0  0  0  0  0  0  0  0  0  0
  1  2  2  0  0  0  0
  1  3  1  0  0  0  0
  2  4  1  0  0  0  0
  3 12  2  0  0  0  0
  4 13  2  0  0  0  0
  5  7  2  0  0  0  0
  5 14  1  0  0  0  0
  6  8  1  0  0  0  0
  6 15  2  0  0  0  0
  7 16  1  0  0  0  0
  8 17  2  0  0  0  0
  9 11  1  0  0  0  0
  9 14  2  0  0  0  0
 10 15  1  0  0  0  0
 10 18  2  0  0  0  0
 11 16  2  0  0  0  0
 11 22  1  0  0  0  0
 12 13  1  0  0  0  0
 12 28  1  0  0  0  0
 13 29  1  0  0  0  0
 14 30  1  0  0  0  0
 15 31  1  0  0  0  0
 16 33  1  0  0  0  0
 17 18  1  0  0  0  0
 17 36  1  0  0  0  0
 18 37  1  0  0  0  0
 19 26  1  0  0  0  0
 19 28  2  0  0  0  0
 19 29  1  0  0  0  0
 20 29  1  0  0  0  0
 20 32  2  0  0  0  0
 20 34  1  0  0  0  0
 21 30  1  0  0  0  0
 21 31  1  0  0  0  0
 21 35  2  0  0  0  0
 23 27  1  0  0  0  0
 24 27  1  0  0  0  0
 25 27  1  0  0  0  0
 26 33  1  0  0  0  0
 27 34  1  0  0  0  0
  1 38  1  0  0  0  0
  2 39  1  0  0  0  0
  3 40  1  0  0  0  0
  4 41  1  0  0  0  0
  5 42  1  0  0  0  0
  6 43  1  0  0  0  0
  7 44  1  0  0  0  0
  8 45  1  0  0  0  0
  9 46  1  0  0  0  0
 10 47  1  0  0  0  0
 22 48  1  0  0  0  0
 22 49  1  0  0  0  0
 22 50  1  0  0  0  0
 23 51  1  0  0  0  0
 23 52  1  0  0  0  0
 23 53  1  0  0  0  0
 24 54  1  0  0  0  0
 24 55  1  0  0  0  0
 24 56  1  0  0  0  0
 25 57  1  0  0  0  0
 25 58  1  0  0  0  0
 25 59  1  0  0  0  0
 26 60  1  0  0  0  0
 26 61  1  0  0  0  0
 30 62  1  0  0  0  0
 31 63  1  0  0  0  0
M  END
> <Clean Energy>
84.5744

> <SourceTag>
Livi_174a

> <Activity_FLAP>
100

> <Activity_sEH>
0.7

> <Gold.Version>
5.2

> <Gold.Id.Protein>
6HGV|6HGV_protein|mol2

> <Gold.Goldscore.Fitness>
95.7046

> <Gold.Goldscore.Internal.Vdw>
-13.2836

> <Gold.Goldscore.Internal.Torsion>
-13.1693

> <Gold.Goldscore.External.Vdw>
72.1985

> <Gold.Goldscore.Internal.HBond>
0.0000

> <Gold.Goldscore.External.HBond>
0.0000

> <Gold.Goldscore.Internal.Correction>
-22.8846

> <Gold.Goldscore.Internal.Vdw.Weighted>
-13.2836

> <Gold.Goldscore.Internal.Torsion.Weighted>
-13.1693

> <Gold.Goldscore.External.Vdw.Weighted>
99.2729

> <Gold.Goldscore.Internal.HBond.Weighted>
0.0000

> <Gold.Goldscore.External.HBond.Weighted>
0.0000

> <Gold.Goldscore.Internal.Correction.Weighted>
-22.8846

> <Gold.Protein.RotatedTorsions>
[ 3781 1176 1175 1172 ] final  106.52 input   60.00 | X-H torsion
[ 3847 1247 1246 1244 ] final   96.16 input   60.00 | X-H torsion
[ 4507 1931 1930 1928 ] final  -47.20 input   60.00 | X-H torsion
[ 3677 1070 1069 1066 ] final  -89.10 input   60.00 | X-H torsion
[ 3525  925  924  922 ] final  -47.76 input   59.99 | X-H torsion
[ 4531 1957 1955 1953 ] final  -14.31 input   60.00 | X-H torsion

> <Gold.Protein.ActiveResidues>
 PHE267  PRO268  MET310  ASP335  TRP336  MET339  TYR343  THR360  PRO361  ILE363 
 PRO371  SER374  ILE375  ASN378  PHE381  TYR383  GLN384  PHE387  LEU408  LEU417 
 MET419  LEU428  TYR466  MET469  ASN472  ASP496  VAL498  LEU499  MET503  HIS524 
 TRP525 

> <Gold.Protein.RotatedAtoms>
   -3.7581  -29.5435  -29.7349 H   0  0  0  0  0  0  0  0  0  0  0  0  # atno 3525 bound_to 925 
  -11.8964  -23.8123  -31.3706 H   0  0  0  0  0  0  0  0  0  0  0  0  # atno 3677 bound_to 1070
  -10.0248  -37.2007  -32.3861 H   0  0  0  0  0  0  0  0  0  0  0  0  # atno 3781 bound_to 1176
  -14.4282  -28.6176  -37.5964 H   0  0  0  0  0  0  0  0  0  0  0  0  # atno 3847 bound_to 1247
  -13.6368  -25.3128  -39.7336 H   0  0  0  0  0  0  0  0  0  0  0  0  # atno 4507 bound_to 1931
   -2.6821  -32.3492  -36.7196 H   0  0  0  0  0  0  0  0  0  0  0  0  # atno 4531 bound_to 1957
  -10.7354  -37.1242  -33.8480 LP  0  0  0  0  0  0  0  0  0  0  0  0  # atno 5205 bound_to 1176
   -9.3506  -36.3059  -33.5663 LP  0  0  0  0  0  0  0  0  0  0  0  0  # atno 5206 bound_to 1176
  -15.9552  -28.4173  -37.0709 LP  0  0  0  0  0  0  0  0  0  0  0  0  # atno 5215 bound_to 1247
  -15.1864  -27.1984  -37.8389 LP  0  0  0  0  0  0  0  0  0  0  0  0  # atno 5216 bound_to 1247
  -13.0102  -23.9295  -40.3182 LP  0  0  0  0  0  0  0  0  0  0  0  0  # atno 5217 bound_to 1931
  -12.5438  -24.4866  -38.8558 LP  0  0  0  0  0  0  0  0  0  0  0  0  # atno 5218 bound_to 1931
  -11.2297  -22.4046  -30.8997 LP  0  0  0  0  0  0  0  0  0  0  0  0  # atno 5224 bound_to 1070
  -12.7284  -22.8109  -30.3943 LP  0  0  0  0  0  0  0  0  0  0  0  0  # atno 5225 bound_to 1070

$$$$
MSC-065|Lisa_paper2_min|sdf|12|dock5
  -GOLD-  10182017143D 1   1.00000     0.00000

 63 66  0  0  0  0  0  0  0  0  1 V2000
   -3.7860  -30.2588  -32.6384 C   0  0  0  0  0  0  0  0  0  0  0  0
   -4.2825  -31.5581  -32.7197 C   0  0  0  0  0  0  0  0  0  0  0  0
   -4.4986  -29.1868  -33.1835 C   0  0  0  0  0  0  0  0  0  0  0  0
   -5.5041  -31.8293  -33.3460 C   0  0  0  0  0  0  0  0  0  0  0  0
  -12.0190  -26.6240  -36.9635 C   0  0  0  0  0  0  0  0  0  0  0  0
  -18.0073  -24.9342  -35.6186 C   0  0  0  0  0  0  0  0  0  0  0  0
  -10.8044  -27.2334  -36.6487 C   0  0  0  0  0  0  0  0  0  0  0  0
  -19.3997  -25.0040  -35.5768 C   0  0  0  0  0  0  0  0  0  0  0  0
  -11.6473  -24.9863  -35.2266 C   0  0  0  0  0  0  0  0  0  0  0  0
  -18.1172  -24.0953  -37.8816 C   0  0  0  0  0  0  0  0  0  0  0  0
  -10.4327  -25.5956  -34.9118 C   0  0  0  0  0  0  0  0  0  0  0  0
   -5.7280  -29.4416  -33.8168 C   0  0  0  0  0  0  0  0  0  0  0  0
   -6.2125  -30.7482  -33.8901 C   0  0  0  0  0  0  0  0  0  0  0  0
  -12.4404  -25.5004  -36.2524 C   0  0  0  0  0  0  0  0  0  0  0  0
  -17.3660  -24.4798  -36.7710 C   0  0  0  0  0  0  0  0  0  0  0  0
  -10.0114  -26.7193  -35.6229 C   0  0  0  0  0  0  0  0  0  0  0  0
  -20.1510  -24.6194  -36.6874 C   0  0  0  0  0  0  0  0  0  0  0  0
  -19.5097  -24.1651  -37.8398 C   0  0  0  0  0  0  0  0  0  0  0  0
   -7.5835  -29.3023  -34.8491 C   0  0  0  0  0  0  0  0  0  0  0  0
   -8.3016  -31.6826  -34.8925 C   0  0  0  0  0  0  0  0  0  0  0  0
  -14.9834  -25.2855  -36.3568 C   0  0  0  0  0  0  0  0  0  0  0  0
   -9.5964  -25.0319  -33.8108 C   0  0  0  0  0  0  0  0  0  0  0  0
   -7.9744  -33.8996  -36.6114 C   0  0  0  0  0  0  0  0  0  0  0  0
   -7.6095  -35.2429  -34.5205 C   0  0  0  0  0  0  0  0  0  0  0  0
   -9.8142  -34.1032  -34.9061 C   0  0  0  0  0  0  0  0  0  0  0  0
   -8.7470  -28.7328  -35.5671 C   0  0  0  0  0  0  0  0  0  0  0  0
   -8.3040  -34.0242  -35.1246 C   0  0  0  0  0  0  0  0  0  0  0  0
   -6.5901  -28.5631  -34.4156 N   0  0  0  0  0  0  0  0  0  0  0  0
   -7.4229  -30.6438  -34.5652 N   0  0  0  0  0  0  0  0  0  0  0  0
  -13.6553  -24.8911  -36.5676 N   0  0  0  0  0  0  0  0  0  0  0  0
  -15.9509  -24.4085  -36.8128 N   0  0  0  0  0  0  0  0  0  0  0  0
   -9.3429  -31.4694  -35.4912 O   0  0  0  0  0  0  0  0  0  0  0  0
   -8.8225  -27.3294  -35.3274 O   0  0  0  0  0  0  0  0  0  0  0  0
   -7.8059  -32.8656  -34.4493 O   0  0  0  0  0  0  0  0  0  0  0  0
  -15.2404  -26.6893  -35.4604 S   0  0  0  0  0  0  0  0  0  0  0  0
  -21.8722  -24.7318  -36.5746 Cl  0  0  0  0  0  0  0  0  0  0  0  0
  -20.3853  -23.6768  -39.2483 Cl  0  0  0  0  0  0  0  0  0  0  0  0
   -2.8346  -30.0753  -32.1466 H   0  0  0  0  0  0  0  0  0  0  0  0
   -3.7113  -32.3770  -32.2894 H   0  0  0  0  0  0  0  0  0  0  0  0
   -4.1054  -28.1771  -33.1167 H   0  0  0  0  0  0  0  0  0  0  0  0
   -5.8681  -32.8487  -33.3960 H   0  0  0  0  0  0  0  0  0  0  0  0
  -12.6289  -27.0334  -37.7649 H   0  0  0  0  0  0  0  0  0  0  0  0
  -17.4314  -25.2348  -34.7471 H   0  0  0  0  0  0  0  0  0  0  0  0
  -10.4819  -28.1084  -37.2066 H   0  0  0  0  0  0  0  0  0  0  0  0
  -19.8827  -25.3590  -34.6698 H   0  0  0  0  0  0  0  0  0  0  0  0
  -11.9747  -24.1100  -34.6712 H   0  0  0  0  0  0  0  0  0  0  0  0
  -17.6112  -23.7430  -38.7782 H   0  0  0  0  0  0  0  0  0  0  0  0
  -10.0233  -24.0870  -33.4548 H   0  0  0  0  0  0  0  0  0  0  0  0
   -9.5332  -25.7274  -32.9647 H   0  0  0  0  0  0  0  0  0  0  0  0
   -8.5690  -24.8461  -34.1484 H   0  0  0  0  0  0  0  0  0  0  0  0
   -6.9354  -33.5821  -36.7549 H   0  0  0  0  0  0  0  0  0  0  0  0
   -8.1243  -34.8474  -37.1387 H   0  0  0  0  0  0  0  0  0  0  0  0
   -8.5996  -33.1358  -37.0879 H   0  0  0  0  0  0  0  0  0  0  0  0
   -6.5250  -35.1873  -34.6687 H   0  0  0  0  0  0  0  0  0  0  0  0
   -7.9414  -36.1646  -35.0118 H   0  0  0  0  0  0  0  0  0  0  0  0
   -7.8088  -35.3308  -33.4475 H   0  0  0  0  0  0  0  0  0  0  0  0
  -10.1655  -35.1392  -34.9739 H   0  0  0  0  0  0  0  0  0  0  0  0
  -10.1015  -33.7042  -33.9278 H   0  0  0  0  0  0  0  0  0  0  0  0
  -10.3500  -33.5437  -35.6814 H   0  0  0  0  0  0  0  0  0  0  0  0
   -8.6765  -28.8921  -36.6557 H   0  0  0  0  0  0  0  0  0  0  0  0
   -9.6934  -29.1914  -35.2369 H   0  0  0  0  0  0  0  0  0  0  0  0
  -13.5842  -23.9672  -37.0110 H   0  0  0  0  0  0  0  0  0  0  0  0
  -15.5936  -23.5185  -37.1510 H   0  0  0  0  0  0  0  0  0  0  0  0
  1  2  2  0  0  0  0
  1  3  1  0  0  0  0
  2  4  1  0  0  0  0
  3 12  2  0  0  0  0
  4 13  2  0  0  0  0
  5  7  2  0  0  0  0
  5 14  1  0  0  0  0
  6  8  1  0  0  0  0
  6 15  2  0  0  0  0
  7 16  1  0  0  0  0
  8 17  2  0  0  0  0
  9 11  1  0  0  0  0
  9 14  2  0  0  0  0
 10 15  1  0  0  0  0
 10 18  2  0  0  0  0
 11 16  2  0  0  0  0
 11 22  1  0  0  0  0
 12 13  1  0  0  0  0
 12 28  1  0  0  0  0
 13 29  1  0  0  0  0
 14 30  1  0  0  0  0
 15 31  1  0  0  0  0
 16 33  1  0  0  0  0
 17 18  1  0  0  0  0
 17 36  1  0  0  0  0
 18 37  1  0  0  0  0
 19 26  1  0  0  0  0
 19 28  2  0  0  0  0
 19 29  1  0  0  0  0
 20 29  1  0  0  0  0
 20 32  2  0  0  0  0
 20 34  1  0  0  0  0
 21 30  1  0  0  0  0
 21 31  1  0  0  0  0
 21 35  2  0  0  0  0
 23 27  1  0  0  0  0
 24 27  1  0  0  0  0
 25 27  1  0  0  0  0
 26 33  1  0  0  0  0
 27 34  1  0  0  0  0
  1 38  1  0  0  0  0
  2 39  1  0  0  0  0
  3 40  1  0  0  0  0
  4 41  1  0  0  0  0
  5 42  1  0  0  0  0
  6 43  1  0  0  0  0
  7 44  1  0  0  0  0
  8 45  1  0  0  0  0
  9 46  1  0  0  0  0
 10 47  1  0  0  0  0
 22 48  1  0  0  0  0
 22 49  1  0  0  0  0
 22 50  1  0  0  0  0
 23 51  1  0  0  0  0
 23 52  1  0  0  0  0
 23 53  1  0  0  0  0
 24 54  1  0  0  0  0
 24 55  1  0  0  0  0
 24 56  1  0  0  0  0
 25 57  1  0  0  0  0
 25 58  1  0  0  0  0
 25 59  1  0  0  0  0
 26 60  1  0  0  0  0
 26 61  1  0  0  0  0
 30 62  1  0  0  0  0
 31 63  1  0  0  0  0
M  END
> <Clean Energy>
84.5744

> <SourceTag>
Livi_174a

> <Activity_FLAP>
100

> <Activity_sEH>
0.7

> <Gold.Version>
5.2

> <Gold.Id.Protein>
6HGV|6HGV_protein|mol2

> <Gold.Goldscore.Fitness>
93.5101

> <Gold.Goldscore.Internal.Vdw>
-9.0007

> <Gold.Goldscore.Internal.Torsion>
-14.4842

> <Gold.Goldscore.External.Vdw>
69.2692

> <Gold.Goldscore.Internal.HBond>
0.0000

> <Gold.Goldscore.External.HBond>
0.0874

> <Gold.Goldscore.Internal.Correction>
-21.6626

> <Gold.Goldscore.Hbonds>
donor molecule, donor type, donor heavy atom, donor atom, acceptor molecule, acceptor atom, score
      L1  H    30    62       P1   854  0.01

> <Gold.Goldscore.Internal.Vdw.Weighted>
-9.0007

> <Gold.Goldscore.Internal.Torsion.Weighted>
-14.4842

> <Gold.Goldscore.External.Vdw.Weighted>
95.2451

> <Gold.Goldscore.Internal.HBond.Weighted>
0.0000

> <Gold.Goldscore.External.HBond.Weighted>
0.0874

> <Gold.Goldscore.Internal.Correction.Weighted>
-21.6626

> <Gold.Protein.RotatedTorsions>
[ 3781 1176 1175 1172 ] final   75.80 input   60.00 | X-H torsion
[ 3847 1247 1246 1244 ] final   84.67 input   60.00 | X-H torsion
[ 4507 1931 1930 1928 ] final  -28.74 input   60.00 | X-H torsion
[ 3677 1070 1069 1066 ] final  -98.53 input   60.00 | X-H torsion
[ 3525  925  924  922 ] final  -45.42 input   59.99 | X-H torsion
[ 4531 1957 1955 1953 ] final    2.11 input   60.00 | X-H torsion

> <Gold.Protein.ActiveResidues>
 PHE267  PRO268  MET310  ASP335  TRP336  MET339  TYR343  THR360  PRO361  ILE363 
 PRO371  SER374  ILE375  ASN378  PHE381  TYR383  GLN384  PHE387  LEU408  LEU417 
 MET419  LEU428  TYR466  MET469  ASN472  ASP496  VAL498  LEU499  MET503  HIS524 
 TRP525 

> <Gold.Protein.RotatedAtoms>
   -3.7638  -29.5376  -29.7723 H   0  0  0  0  0  0  0  0  0  0  0  0  # atno 3525 bound_to 925 
  -11.7564  -23.7634  -31.4116 H   0  0  0  0  0  0  0  0  0  0  0  0  # atno 3677 bound_to 1070
  -10.4319  -37.3952  -32.5920 H   0  0  0  0  0  0  0  0  0  0  0  0  # atno 3781 bound_to 1176
  -14.5312  -28.7460  -37.5068 H   0  0  0  0  0  0  0  0  0  0  0  0  # atno 3847 bound_to 1247
  -13.5226  -25.3762  -39.4631 H   0  0  0  0  0  0  0  0  0  0  0  0  # atno 4507 bound_to 1931
   -2.8793  -32.5266  -36.6852 H   0  0  0  0  0  0  0  0  0  0  0  0  # atno 4531 bound_to 1957
  -10.4383  -36.8255  -34.1163 LP  0  0  0  0  0  0  0  0  0  0  0  0  # atno 5205 bound_to 1176
   -9.2378  -36.4087  -33.0908 LP  0  0  0  0  0  0  0  0  0  0  0  0  # atno 5206 bound_to 1176
  -16.0277  -28.2470  -37.1076 LP  0  0  0  0  0  0  0  0  0  0  0  0  # atno 5215 bound_to 1247
  -15.0102  -27.2394  -37.8924 LP  0  0  0  0  0  0  0  0  0  0  0  0  # atno 5216 bound_to 1247
  -13.2140  -24.1146  -40.4435 LP  0  0  0  0  0  0  0  0  0  0  0  0  # atno 5217 bound_to 1931
  -12.4550  -24.2376  -39.0029 LP  0  0  0  0  0  0  0  0  0  0  0  0  # atno 5218 bound_to 1931
  -11.3180  -22.3176  -30.8067 LP  0  0  0  0  0  0  0  0  0  0  0  0  # atno 5224 bound_to 1070
  -12.7810  -22.9472  -30.4460 LP  0  0  0  0  0  0  0  0  0  0  0  0  # atno 5225 bound_to 1070

$$$$
MSC-065|Lisa_paper2_min|sdf|12|dock6
  -GOLD-  10182017143D 1   1.00000     0.00000

 63 66  0  0  0  0  0  0  0  0  1 V2000
  -11.1434  -33.7249  -35.0487 C   0  0  0  0  0  0  0  0  0  0  0  0
   -9.8779  -34.2847  -34.8863 C   0  0  0  0  0  0  0  0  0  0  0  0
  -11.3100  -32.3377  -35.0941 C   0  0  0  0  0  0  0  0  0  0  0  0
   -8.7396  -33.4800  -34.7645 C   0  0  0  0  0  0  0  0  0  0  0  0
  -11.5203  -27.1541  -36.9627 C   0  0  0  0  0  0  0  0  0  0  0  0
  -16.9749  -23.2408  -39.1824 C   0  0  0  0  0  0  0  0  0  0  0  0
  -10.5228  -27.6965  -36.1525 C   0  0  0  0  0  0  0  0  0  0  0  0
  -18.3116  -22.8604  -39.3017 C   0  0  0  0  0  0  0  0  0  0  0  0
  -11.8981  -25.4125  -35.3315 C   0  0  0  0  0  0  0  0  0  0  0  0
  -17.5965  -24.9153  -37.5556 C   0  0  0  0  0  0  0  0  0  0  0  0
  -10.9005  -25.9548  -34.5213 C   0  0  0  0  0  0  0  0  0  0  0  0
  -10.1766  -31.5141  -34.9730 C   0  0  0  0  0  0  0  0  0  0  0  0
   -8.9156  -32.0895  -34.8111 C   0  0  0  0  0  0  0  0  0  0  0  0
  -12.2080  -26.0121  -36.5522 C   0  0  0  0  0  0  0  0  0  0  0  0
  -16.6174  -24.2683  -38.3094 C   0  0  0  0  0  0  0  0  0  0  0  0
  -10.2130  -27.0969  -34.9318 C   0  0  0  0  0  0  0  0  0  0  0  0
  -19.2908  -23.5075  -38.5479 C   0  0  0  0  0  0  0  0  0  0  0  0
  -18.9332  -24.5350  -37.6749 C   0  0  0  0  0  0  0  0  0  0  0  0
   -8.8197  -29.8805  -34.8398 C   0  0  0  0  0  0  0  0  0  0  0  0
   -6.6512  -31.0644  -34.5583 C   0  0  0  0  0  0  0  0  0  0  0  0
  -14.5629  -25.2097  -37.1303 C   0  0  0  0  0  0  0  0  0  0  0  0
  -10.5818  -25.3000  -33.2178 C   0  0  0  0  0  0  0  0  0  0  0  0
   -4.4955  -31.6701  -32.9825 C   0  0  0  0  0  0  0  0  0  0  0  0
   -4.6367  -34.0141  -33.8742 C   0  0  0  0  0  0  0  0  0  0  0  0
   -4.0367  -32.1238  -35.4153 C   0  0  0  0  0  0  0  0  0  0  0  0
   -8.2943  -28.4962  -34.8016 C   0  0  0  0  0  0  0  0  0  0  0  0
   -4.8519  -32.5355  -34.1903 C   0  0  0  0  0  0  0  0  0  0  0  0
  -10.0956  -30.1479  -34.9878 N   0  0  0  0  0  0  0  0  0  0  0  0
   -8.0396  -31.0138  -34.7258 N   0  0  0  0  0  0  0  0  0  0  0  0
  -13.2057  -25.4698  -37.3628 N   0  0  0  0  0  0  0  0  0  0  0  0
  -15.2590  -24.6549  -38.1890 N   0  0  0  0  0  0  0  0  0  0  0  0
   -5.9809  -30.0470  -34.4966 O   0  0  0  0  0  0  0  0  0  0  0  0
   -9.2313  -27.6421  -34.1495 O   0  0  0  0  0  0  0  0  0  0  0  0
   -6.2402  -32.3556  -34.4855 O   0  0  0  0  0  0  0  0  0  0  0  0
  -15.1433  -25.4661  -35.5690 S   0  0  0  0  0  0  0  0  0  0  0  0
  -20.9286  -22.9885  -38.7380 Cl  0  0  0  0  0  0  0  0  0  0  0  0
  -20.1001  -25.3728  -36.7129 Cl  0  0  0  0  0  0  0  0  0  0  0  0
  -12.0113  -34.3723  -35.1409 H   0  0  0  0  0  0  0  0  0  0  0  0
   -9.7716  -35.3662  -34.8530 H   0  0  0  0  0  0  0  0  0  0  0  0
  -12.2992  -31.9085  -35.2205 H   0  0  0  0  0  0  0  0  0  0  0  0
   -7.7667  -33.9402  -34.6389 H   0  0  0  0  0  0  0  0  0  0  0  0
  -11.7534  -27.6299  -37.9119 H   0  0  0  0  0  0  0  0  0  0  0  0
  -16.2200  -22.7311  -39.7756 H   0  0  0  0  0  0  0  0  0  0  0  0
   -9.9908  -28.5863  -36.4783 H   0  0  0  0  0  0  0  0  0  0  0  0
  -18.5722  -22.0587  -39.9882 H   0  0  0  0  0  0  0  0  0  0  0  0
  -12.4335  -24.5217  -35.0100 H   0  0  0  0  0  0  0  0  0  0  0  0
  -17.3113  -25.7153  -36.8752 H   0  0  0  0  0  0  0  0  0  0  0  0
   -9.7782  -24.5657  -33.3477 H   0  0  0  0  0  0  0  0  0  0  0  0
  -11.4601  -24.7874  -32.8061 H   0  0  0  0  0  0  0  0  0  0  0  0
  -10.2636  -26.0378  -32.4706 H   0  0  0  0  0  0  0  0  0  0  0  0
   -3.6976  -32.1346  -32.3922 H   0  0  0  0  0  0  0  0  0  0  0  0
   -4.1672  -30.6705  -33.2854 H   0  0  0  0  0  0  0  0  0  0  0  0
   -5.3550  -31.5633  -32.3107 H   0  0  0  0  0  0  0  0  0  0  0  0
   -3.5694  -34.2386  -33.7658 H   0  0  0  0  0  0  0  0  0  0  0  0
   -5.0035  -34.6453  -34.6917 H   0  0  0  0  0  0  0  0  0  0  0  0
   -5.1484  -34.3088  -32.9523 H   0  0  0  0  0  0  0  0  0  0  0  0
   -4.2749  -32.7599  -36.2755 H   0  0  0  0  0  0  0  0  0  0  0  0
   -4.2250  -31.0817  -35.6933 H   0  0  0  0  0  0  0  0  0  0  0  0
   -2.9636  -32.2459  -35.2283 H   0  0  0  0  0  0  0  0  0  0  0  0
   -7.3371  -28.4346  -34.2582 H   0  0  0  0  0  0  0  0  0  0  0  0
   -8.1135  -28.1014  -35.8148 H   0  0  0  0  0  0  0  0  0  0  0  0
  -12.9020  -25.1728  -38.2981 H   0  0  0  0  0  0  0  0  0  0  0  0
  -14.6839  -24.3908  -38.9851 H   0  0  0  0  0  0  0  0  0  0  0  0
  1  2  2  0  0  0  0
  1  3  1  0  0  0  0
  2  4  1  0  0  0  0
  3 12  2  0  0  0  0
  4 13  2  0  0  0  0
  5  7  2  0  0  0  0
  5 14  1  0  0  0  0
  6  8  1  0  0  0  0
  6 15  2  0  0  0  0
  7 16  1  0  0  0  0
  8 17  2  0  0  0  0
  9 11  1  0  0  0  0
  9 14  2  0  0  0  0
 10 15  1  0  0  0  0
 10 18  2  0  0  0  0
 11 16  2  0  0  0  0
 11 22  1  0  0  0  0
 12 13  1  0  0  0  0
 12 28  1  0  0  0  0
 13 29  1  0  0  0  0
 14 30  1  0  0  0  0
 15 31  1  0  0  0  0
 16 33  1  0  0  0  0
 17 18  1  0  0  0  0
 17 36  1  0  0  0  0
 18 37  1  0  0  0  0
 19 26  1  0  0  0  0
 19 28  2  0  0  0  0
 19 29  1  0  0  0  0
 20 29  1  0  0  0  0
 20 32  2  0  0  0  0
 20 34  1  0  0  0  0
 21 30  1  0  0  0  0
 21 31  1  0  0  0  0
 21 35  2  0  0  0  0
 23 27  1  0  0  0  0
 24 27  1  0  0  0  0
 25 27  1  0  0  0  0
 26 33  1  0  0  0  0
 27 34  1  0  0  0  0
  1 38  1  0  0  0  0
  2 39  1  0  0  0  0
  3 40  1  0  0  0  0
  4 41  1  0  0  0  0
  5 42  1  0  0  0  0
  6 43  1  0  0  0  0
  7 44  1  0  0  0  0
  8 45  1  0  0  0  0
  9 46  1  0  0  0  0
 10 47  1  0  0  0  0
 22 48  1  0  0  0  0
 22 49  1  0  0  0  0
 22 50  1  0  0  0  0
 23 51  1  0  0  0  0
 23 52  1  0  0  0  0
 23 53  1  0  0  0  0
 24 54  1  0  0  0  0
 24 55  1  0  0  0  0
 24 56  1  0  0  0  0
 25 57  1  0  0  0  0
 25 58  1  0  0  0  0
 25 59  1  0  0  0  0
 26 60  1  0  0  0  0
 26 61  1  0  0  0  0
 30 62  1  0  0  0  0
 31 63  1  0  0  0  0
M  END
> <Clean Energy>
84.5744

> <SourceTag>
Livi_174a

> <Activity_FLAP>
100

> <Activity_sEH>
0.7

> <Gold.Version>
5.2

> <Gold.Id.Protein>
6HGV|6HGV_protein|mol2

> <Gold.Goldscore.Fitness>
89.2840

> <Gold.Goldscore.Internal.Vdw>
-19.3863

> <Gold.Goldscore.Internal.Torsion>
-10.5485

> <Gold.Goldscore.External.Vdw>
69.0441

> <Gold.Goldscore.Internal.HBond>
0.0000

> <Gold.Goldscore.External.HBond>
2.6207

> <Gold.Goldscore.Internal.Correction>
-21.6626

> <Gold.Goldscore.Hbonds>
donor molecule, donor type, donor heavy atom, donor atom, acceptor molecule, acceptor atom, score
      P1  H  1256  3854       L1    28  0.17
      L1  H    30    62       P1  1931  0.95
      L1  H    31    63       P1  1931  0.19

> <Gold.Goldscore.Internal.Vdw.Weighted>
-19.3863

> <Gold.Goldscore.Internal.Torsion.Weighted>
-10.5485

> <Gold.Goldscore.External.Vdw.Weighted>
94.9357

> <Gold.Goldscore.Internal.HBond.Weighted>
0.0000

> <Gold.Goldscore.External.HBond.Weighted>
2.6207

> <Gold.Goldscore.Internal.Correction.Weighted>
-21.6626

> <Gold.Protein.RotatedTorsions>
[ 3781 1176 1175 1172 ] final  151.36 input   60.00 | X-H torsion
[ 3847 1247 1246 1244 ] final  135.25 input   60.00 | X-H torsion
[ 4507 1931 1930 1928 ] final  176.85 input   60.00 | X-H torsion
[ 3677 1070 1069 1066 ] final  176.61 input   60.00 | X-H torsion
[ 3525  925  924  922 ] final   25.64 input   59.99 | X-H torsion
[ 4531 1957 1955 1953 ] final  145.26 input   60.00 | X-H torsion

> <Gold.Protein.ActiveResidues>
 PHE267  PRO268  MET310  ASP335  TRP336  MET339  TYR343  THR360  PRO361  ILE363 
 PRO371  SER374  ILE375  ASN378  PHE381  TYR383  GLN384  PHE387  LEU408  LEU417 
 MET419  LEU428  TYR466  MET469  ASN472  ASP496  VAL498  LEU499  MET503  HIS524 
 TRP525 

> <Gold.Protein.RotatedAtoms>
   -3.3049  -29.6479  -30.7527 H   0  0  0  0  0  0  0  0  0  0  0  0  # atno 3525 bound_to 925 
  -11.0979  -22.7197  -31.1409 H   0  0  0  0  0  0  0  0  0  0  0  0  # atno 3677 bound_to 1070
   -9.4683  -36.7763  -32.5280 H   0  0  0  0  0  0  0  0  0  0  0  0  # atno 3781 bound_to 1176
  -14.3205  -28.0565  -37.8532 H   0  0  0  0  0  0  0  0  0  0  0  0  # atno 3847 bound_to 1247
  -12.8379  -23.8292  -40.1501 H   0  0  0  0  0  0  0  0  0  0  0  0  # atno 4507 bound_to 1931
   -1.9764  -34.0438  -36.8831 H   0  0  0  0  0  0  0  0  0  0  0  0  # atno 4531 bound_to 1957
  -10.8073  -37.4167  -33.1951 LP  0  0  0  0  0  0  0  0  0  0  0  0  # atno 5205 bound_to 1176
   -9.8392  -36.4407  -34.0765 LP  0  0  0  0  0  0  0  0  0  0  0  0  # atno 5206 bound_to 1176
  -15.5051  -28.8593  -37.0785 LP  0  0  0  0  0  0  0  0  0  0  0  0  # atno 5215 bound_to 1247
  -15.7449  -27.3215  -37.5726 LP  0  0  0  0  0  0  0  0  0  0  0  0  # atno 5216 bound_to 1247
  -12.6642  -24.7102  -38.7930 LP  0  0  0  0  0  0  0  0  0  0  0  0  # atno 5217 bound_to 1931
  -13.6944  -25.2000  -39.9615 LP  0  0  0  0  0  0  0  0  0  0  0  0  # atno 5218 bound_to 1931
  -12.4843  -22.4770  -30.3241 LP  0  0  0  0  0  0  0  0  0  0  0  0  # atno 5224 bound_to 1070
  -12.2778  -23.8388  -31.2012 LP  0  0  0  0  0  0  0  0  0  0  0  0  # atno 5225 bound_to 1070

$$$$
MSC-065|Lisa_paper2_min|sdf|12|dock4
  -GOLD-  10182017143D 1   1.00000     0.00000

 63 66  0  0  0  0  0  0  0  0  1 V2000
   -3.2762  -29.9930  -32.8292 C   0  0  0  0  0  0  0  0  0  0  0  0
   -3.6605  -31.3263  -32.9557 C   0  0  0  0  0  0  0  0  0  0  0  0
   -4.1065  -28.9645  -33.2842 C   0  0  0  0  0  0  0  0  0  0  0  0
   -4.8836  -31.6759  -33.5388 C   0  0  0  0  0  0  0  0  0  0  0  0
  -11.8897  -26.8586  -36.7769 C   0  0  0  0  0  0  0  0  0  0  0  0
  -17.8856  -25.1319  -35.4116 C   0  0  0  0  0  0  0  0  0  0  0  0
  -10.6504  -27.4215  -36.4723 C   0  0  0  0  0  0  0  0  0  0  0  0
  -19.2740  -25.2532  -35.3564 C   0  0  0  0  0  0  0  0  0  0  0  0
  -11.4576  -25.0641  -35.2180 C   0  0  0  0  0  0  0  0  0  0  0  0
  -18.0191  -24.6788  -37.7809 C   0  0  0  0  0  0  0  0  0  0  0  0
  -10.2182  -25.6271  -34.9134 C   0  0  0  0  0  0  0  0  0  0  0  0
   -5.3391  -29.2981  -33.8730 C   0  0  0  0  0  0  0  0  0  0  0  0
   -5.7104  -30.6379  -33.9925 C   0  0  0  0  0  0  0  0  0  0  0  0
  -12.2933  -25.6798  -36.1498 C   0  0  0  0  0  0  0  0  0  0  0  0
  -17.2581  -24.8446  -36.6238 C   0  0  0  0  0  0  0  0  0  0  0  0
   -9.8147  -26.8058  -35.5406 C   0  0  0  0  0  0  0  0  0  0  0  0
  -20.0351  -25.0874  -36.5136 C   0  0  0  0  0  0  0  0  0  0  0  0
  -19.4076  -24.8002  -37.7258 C   0  0  0  0  0  0  0  0  0  0  0  0
   -7.2491  -29.2768  -34.8106 C   0  0  0  0  0  0  0  0  0  0  0  0
   -7.7574  -31.7072  -34.9458 C   0  0  0  0  0  0  0  0  0  0  0  0
  -14.8433  -25.5599  -36.2305 C   0  0  0  0  0  0  0  0  0  0  0  0
   -9.3364  -24.9546  -33.9137 C   0  0  0  0  0  0  0  0  0  0  0  0
   -9.2578  -33.9229  -34.1982 C   0  0  0  0  0  0  0  0  0  0  0  0
   -8.0145  -34.1928  -36.3641 C   0  0  0  0  0  0  0  0  0  0  0  0
   -7.1154  -35.2418  -34.2666 C   0  0  0  0  0  0  0  0  0  0  0  0
   -8.4927  -28.7804  -35.4438 C   0  0  0  0  0  0  0  0  0  0  0  0
   -7.8816  -34.0550  -34.8489 C   0  0  0  0  0  0  0  0  0  0  0  0
   -6.3038  -28.4729  -34.3849 N   0  0  0  0  0  0  0  0  0  0  0  0
   -6.9577  -30.6105  -34.6051 N   0  0  0  0  0  0  0  0  0  0  0  0
  -13.5329  -25.1169  -36.4547 N   0  0  0  0  0  0  0  0  0  0  0  0
  -15.8472  -24.7208  -36.6792 N   0  0  0  0  0  0  0  0  0  0  0  0
   -8.8421  -31.5600  -35.4843 O   0  0  0  0  0  0  0  0  0  0  0  0
   -8.6021  -27.3717  -35.2537 O   0  0  0  0  0  0  0  0  0  0  0  0
   -7.1384  -32.8607  -34.5883 O   0  0  0  0  0  0  0  0  0  0  0  0
  -15.0395  -26.9700  -35.3286 S   0  0  0  0  0  0  0  0  0  0  0  0
  -21.7506  -25.2531  -36.3810 Cl  0  0  0  0  0  0  0  0  0  0  0  0
  -20.2958  -24.5860  -39.1936 Cl  0  0  0  0  0  0  0  0  0  0  0  0
   -2.3211  -29.7485  -32.3725 H   0  0  0  0  0  0  0  0  0  0  0  0
   -2.9989  -32.1103  -32.5955 H   0  0  0  0  0  0  0  0  0  0  0  0
   -3.8003  -27.9279  -33.1827 H   0  0  0  0  0  0  0  0  0  0  0  0
   -5.1590  -32.7203  -33.6255 H   0  0  0  0  0  0  0  0  0  0  0  0
  -12.5327  -27.3472  -37.5046 H   0  0  0  0  0  0  0  0  0  0  0  0
  -17.3020  -25.2614  -34.5037 H   0  0  0  0  0  0  0  0  0  0  0  0
  -10.3420  -28.3400  -36.9646 H   0  0  0  0  0  0  0  0  0  0  0  0
  -19.7462  -25.4758  -34.4028 H   0  0  0  0  0  0  0  0  0  0  0  0
  -11.7710  -24.1447  -34.7282 H   0  0  0  0  0  0  0  0  0  0  0  0
  -17.5239  -24.4562  -38.7240 H   0  0  0  0  0  0  0  0  0  0  0  0
   -9.4630  -23.8668  -33.9659 H   0  0  0  0  0  0  0  0  0  0  0  0
   -9.5692  -25.2847  -32.8937 H   0  0  0  0  0  0  0  0  0  0  0  0
   -8.2803  -25.1925  -34.0927 H   0  0  0  0  0  0  0  0  0  0  0  0
   -9.1935  -33.3567  -33.2622 H   0  0  0  0  0  0  0  0  0  0  0  0
   -9.9705  -33.4205  -34.8603 H   0  0  0  0  0  0  0  0  0  0  0  0
   -9.6629  -34.9073  -33.9368 H   0  0  0  0  0  0  0  0  0  0  0  0
   -7.0963  -33.8690  -36.8673 H   0  0  0  0  0  0  0  0  0  0  0  0
   -8.8179  -33.5521  -36.7452 H   0  0  0  0  0  0  0  0  0  0  0  0
   -8.2256  -35.2259  -36.6588 H   0  0  0  0  0  0  0  0  0  0  0  0
   -7.0270  -35.1541  -33.1777 H   0  0  0  0  0  0  0  0  0  0  0  0
   -7.6074  -36.1922  -34.4980 H   0  0  0  0  0  0  0  0  0  0  0  0
   -6.0922  -35.2751  -34.6582 H   0  0  0  0  0  0  0  0  0  0  0  0
   -8.5117  -28.9834  -36.5272 H   0  0  0  0  0  0  0  0  0  0  0  0
   -9.3877  -29.2581  -35.0126 H   0  0  0  0  0  0  0  0  0  0  0  0
  -13.5005  -24.1922  -36.9008 H   0  0  0  0  0  0  0  0  0  0  0  0
  -15.5264  -23.8190  -37.0228 H   0  0  0  0  0  0  0  0  0  0  0  0
  1  2  2  0  0  0  0
  1  3  1  0  0  0  0
  2  4  1  0  0  0  0
  3 12  2  0  0  0  0
  4 13  2  0  0  0  0
  5  7  2  0  0  0  0
  5 14  1  0  0  0  0
  6  8  1  0  0  0  0
  6 15  2  0  0  0  0
  7 16  1  0  0  0  0
  8 17  2  0  0  0  0
  9 11  1  0  0  0  0
  9 14  2  0  0  0  0
 10 15  1  0  0  0  0
 10 18  2  0  0  0  0
 11 16  2  0  0  0  0
 11 22  1  0  0  0  0
 12 13  1  0  0  0  0
 12 28  1  0  0  0  0
 13 29  1  0  0  0  0
 14 30  1  0  0  0  0
 15 31  1  0  0  0  0
 16 33  1  0  0  0  0
 17 18  1  0  0  0  0
 17 36  1  0  0  0  0
 18 37  1  0  0  0  0
 19 26  1  0  0  0  0
 19 28  2  0  0  0  0
 19 29  1  0  0  0  0
 20 29  1  0  0  0  0
 20 32  2  0  0  0  0
 20 34  1  0  0  0  0
 21 30  1  0  0  0  0
 21 31  1  0  0  0  0
 21 35  2  0  0  0  0
 23 27  1  0  0  0  0
 24 27  1  0  0  0  0
 25 27  1  0  0  0  0
 26 33  1  0  0  0  0
 27 34  1  0  0  0  0
  1 38  1  0  0  0  0
  2 39  1  0  0  0  0
  3 40  1  0  0  0  0
  4 41  1  0  0  0  0
  5 42  1  0  0  0  0
  6 43  1  0  0  0  0
  7 44  1  0  0  0  0
  8 45  1  0  0  0  0
  9 46  1  0  0  0  0
 10 47  1  0  0  0  0
 22 48  1  0  0  0  0
 22 49  1  0  0  0  0
 22 50  1  0  0  0  0
 23 51  1  0  0  0  0
 23 52  1  0  0  0  0
 23 53  1  0  0  0  0
 24 54  1  0  0  0  0
 24 55  1  0  0  0  0
 24 56  1  0  0  0  0
 25 57  1  0  0  0  0
 25 58  1  0  0  0  0
 25 59  1  0  0  0  0
 26 60  1  0  0  0  0
 26 61  1  0  0  0  0
 30 62  1  0  0  0  0
 31 63  1  0  0  0  0
M  END
> <Clean Energy>
84.5744

> <SourceTag>
Livi_174a

> <Activity_FLAP>
100

> <Activity_sEH>
0.7

> <Gold.Version>
5.2

> <Gold.Id.Protein>
6HGV|6HGV_protein|mol2

> <Gold.Goldscore.Fitness>
89.0696

> <Gold.Goldscore.Internal.Vdw>
-11.2768

> <Gold.Goldscore.Internal.Torsion>
-13.5867

> <Gold.Goldscore.External.Vdw>
67.0399

> <Gold.Goldscore.Internal.HBond>
0.0000

> <Gold.Goldscore.External.HBond>
0.0906

> <Gold.Goldscore.Internal.Correction>
-21.6626

> <Gold.Goldscore.Hbonds>
donor molecule, donor type, donor heavy atom, donor atom, acceptor molecule, acceptor atom, score
      L1  H    30    62       P1   854  0.02

> <Gold.Goldscore.Internal.Vdw.Weighted>
-11.2768

> <Gold.Goldscore.Internal.Torsion.Weighted>
-13.5867

> <Gold.Goldscore.External.Vdw.Weighted>
92.1799

> <Gold.Goldscore.Internal.HBond.Weighted>
0.0000

> <Gold.Goldscore.External.HBond.Weighted>
0.0906

> <Gold.Goldscore.Internal.Correction.Weighted>
-21.6626

> <Gold.Protein.RotatedTorsions>
[ 3781 1176 1175 1172 ] final  138.23 input   60.00 | X-H torsion
[ 3847 1247 1246 1244 ] final   66.16 input   60.00 | X-H torsion
[ 4507 1931 1930 1928 ] final  -43.52 input   60.00 | X-H torsion
[ 3677 1070 1069 1066 ] final  129.28 input   60.00 | X-H torsion
[ 3525  925  924  922 ] final  -30.90 input   59.99 | X-H torsion
[ 4531 1957 1955 1953 ] final   -6.97 input   60.00 | X-H torsion

> <Gold.Protein.ActiveResidues>
 PHE267  PRO268  MET310  ASP335  TRP336  MET339  TYR343  THR360  PRO361  ILE363 
 PRO371  SER374  ILE375  ASN378  PHE381  TYR383  GLN384  PHE387  LEU408  LEU417 
 MET419  LEU428  TYR466  MET469  ASN472  ASP496  VAL498  LEU499  MET503  HIS524 
 TRP525 

> <Gold.Protein.RotatedAtoms>
   -3.7672  -29.5145  -30.0078 H   0  0  0  0  0  0  0  0  0  0  0  0  # atno 3525 bound_to 925 
  -11.4598  -22.2398  -30.6897 H   0  0  0  0  0  0  0  0  0  0  0  0  # atno 3677 bound_to 1070
   -9.6092  -36.9061  -32.4324 H   0  0  0  0  0  0  0  0  0  0  0  0  # atno 3781 bound_to 1176
  -14.7505  -28.8950  -37.3637 H   0  0  0  0  0  0  0  0  0  0  0  0  # atno 3847 bound_to 1247
  -13.6184  -25.3318  -39.6796 H   0  0  0  0  0  0  0  0  0  0  0  0  # atno 4507 bound_to 1931
   -2.7765  -32.4214  -36.7030 H   0  0  0  0  0  0  0  0  0  0  0  0  # atno 4531 bound_to 1957
  -10.8361  -37.3589  -33.4008 LP  0  0  0  0  0  0  0  0  0  0  0  0  # atno 5205 bound_to 1176
   -9.6683  -36.3678  -33.9669 LP  0  0  0  0  0  0  0  0  0  0  0  0  # atno 5206 bound_to 1176
  -16.0731  -27.9613  -37.1991 LP  0  0  0  0  0  0  0  0  0  0  0  0  # atno 5215 bound_to 1247
  -14.7440  -27.3751  -37.9450 LP  0  0  0  0  0  0  0  0  0  0  0  0  # atno 5216 bound_to 1247
  -13.0511  -23.9616  -40.3493 LP  0  0  0  0  0  0  0  0  0  0  0  0  # atno 5217 bound_to 1931
  -12.5214  -24.4354  -38.8791 LP  0  0  0  0  0  0  0  0  0  0  0  0  # atno 5218 bound_to 1931
  -12.8157  -23.1254  -30.5304 LP  0  0  0  0  0  0  0  0  0  0  0  0  # atno 5224 bound_to 1070
  -11.5821  -23.6738  -31.4492 LP  0  0  0  0  0  0  0  0  0  0  0  0  # atno 5225 bound_to 1070

$$$$
MSC-065|Lisa_paper2_min|sdf|12|dock3
  -GOLD-  10182017133D 1   1.00000     0.00000

 63 66  0  0  0  0  0  0  0  0  1 V2000
   -2.9687  -29.7067  -32.8676 C   0  0  0  0  0  0  0  0  0  0  0  0
   -3.2320  -31.0662  -33.0217 C   0  0  0  0  0  0  0  0  0  0  0  0
   -3.9148  -28.7491  -33.2442 C   0  0  0  0  0  0  0  0  0  0  0  0
   -4.4459  -31.5134  -33.5553 C   0  0  0  0  0  0  0  0  0  0  0  0
  -11.7517  -27.0449  -36.6517 C   0  0  0  0  0  0  0  0  0  0  0  0
  -17.0734  -23.8478  -39.1301 C   0  0  0  0  0  0  0  0  0  0  0  0
  -10.7051  -27.7308  -36.0354 C   0  0  0  0  0  0  0  0  0  0  0  0
  -18.4478  -23.7588  -39.3509 C   0  0  0  0  0  0  0  0  0  0  0  0
  -11.2380  -25.0824  -35.3395 C   0  0  0  0  0  0  0  0  0  0  0  0
  -17.4846  -24.5715  -36.8621 C   0  0  0  0  0  0  0  0  0  0  0  0
  -10.1914  -25.7683  -34.7232 C   0  0  0  0  0  0  0  0  0  0  0  0
   -5.1400  -29.1811  -33.7824 C   0  0  0  0  0  0  0  0  0  0  0  0
   -5.3894  -30.5461  -33.9305 C   0  0  0  0  0  0  0  0  0  0  0  0
  -12.0181  -25.7207  -36.3037 C   0  0  0  0  0  0  0  0  0  0  0  0
  -16.5918  -24.2543  -37.8857 C   0  0  0  0  0  0  0  0  0  0  0  0
   -9.9250  -27.0926  -35.0712 C   0  0  0  0  0  0  0  0  0  0  0  0
  -19.3407  -24.0761  -38.3272 C   0  0  0  0  0  0  0  0  0  0  0  0
  -18.8590  -24.4825  -37.0828 C   0  0  0  0  0  0  0  0  0  0  0  0
   -7.0904  -29.3143  -34.6226 C   0  0  0  0  0  0  0  0  0  0  0  0
   -7.3743  -31.7769  -34.8179 C   0  0  0  0  0  0  0  0  0  0  0  0
  -14.4503  -25.2464  -36.9229 C   0  0  0  0  0  0  0  0  0  0  0  0
   -9.3665  -25.0696  -33.6933 C   0  0  0  0  0  0  0  0  0  0  0  0
   -6.4106  -35.2088  -34.0008 C   0  0  0  0  0  0  0  0  0  0  0  0
   -8.4459  -33.8856  -33.3558 C   0  0  0  0  0  0  0  0  0  0  0  0
   -8.0072  -34.4065  -35.7733 C   0  0  0  0  0  0  0  0  0  0  0  0
   -8.4069  -28.9203  -35.1753 C   0  0  0  0  0  0  0  0  0  0  0  0
   -7.3704  -34.0961  -34.4195 C   0  0  0  0  0  0  0  0  0  0  0  0
   -6.2037  -28.4369  -34.2164 N   0  0  0  0  0  0  0  0  0  0  0  0
   -6.6644  -30.6196  -34.4789 N   0  0  0  0  0  0  0  0  0  0  0  0
  -13.0650  -25.0348  -36.9204 N   0  0  0  0  0  0  0  0  0  0  0  0
  -15.1951  -24.3452  -37.6620 N   0  0  0  0  0  0  0  0  0  0  0  0
   -8.4950  -31.7180  -35.2962 O   0  0  0  0  0  0  0  0  0  0  0  0
   -8.9020  -27.7803  -34.4767 O   0  0  0  0  0  0  0  0  0  0  0  0
   -6.6315  -32.8762  -34.5325 O   0  0  0  0  0  0  0  0  0  0  0  0
  -15.0482  -26.4670  -35.9264 S   0  0  0  0  0  0  0  0  0  0  0  0
  -21.0313  -23.9430  -38.6620 Cl  0  0  0  0  0  0  0  0  0  0  0  0
  -19.9149  -24.8867  -35.7748 Cl  0  0  0  0  0  0  0  0  0  0  0  0
   -2.0179  -29.3859  -32.4506 H   0  0  0  0  0  0  0  0  0  0  0  0
   -2.4815  -31.7938  -32.7227 H   0  0  0  0  0  0  0  0  0  0  0  0
   -3.7025  -27.6915  -33.1216 H   0  0  0  0  0  0  0  0  0  0  0  0
   -4.6260  -32.5763  -33.6649 H   0  0  0  0  0  0  0  0  0  0  0  0
  -12.3531  -27.5524  -37.4017 H   0  0  0  0  0  0  0  0  0  0  0  0
  -16.3864  -23.5998  -39.9351 H   0  0  0  0  0  0  0  0  0  0  0  0
  -10.5028  -28.7623  -36.3111 H   0  0  0  0  0  0  0  0  0  0  0  0
  -18.8053  -23.4418  -40.3275 H   0  0  0  0  0  0  0  0  0  0  0  0
  -11.4446  -24.0496  -35.0672 H   0  0  0  0  0  0  0  0  0  0  0  0
  -17.1029  -24.8867  -35.8929 H   0  0  0  0  0  0  0  0  0  0  0  0
   -9.8355  -24.1198  -33.4108 H   0  0  0  0  0  0  0  0  0  0  0  0
   -9.2528  -25.6847  -32.7920 H   0  0  0  0  0  0  0  0  0  0  0  0
   -8.3561  -24.8627  -34.0678 H   0  0  0  0  0  0  0  0  0  0  0  0
   -5.9429  -34.9779  -33.0371 H   0  0  0  0  0  0  0  0  0  0  0  0
   -6.9228  -36.1729  -33.9166 H   0  0  0  0  0  0  0  0  0  0  0  0
   -5.5934  -35.3130  -34.7238 H   0  0  0  0  0  0  0  0  0  0  0  0
   -8.9745  -34.8222  -33.1447 H   0  0  0  0  0  0  0  0  0  0  0  0
   -9.2043  -33.1746  -33.7030 H   0  0  0  0  0  0  0  0  0  0  0  0
   -8.0203  -33.5091  -32.4200 H   0  0  0  0  0  0  0  0  0  0  0  0
   -7.4036  -33.9987  -36.5922 H   0  0  0  0  0  0  0  0  0  0  0  0
   -8.1177  -35.4846  -35.9292 H   0  0  0  0  0  0  0  0  0  0  0  0
   -8.9954  -33.9397  -35.8554 H   0  0  0  0  0  0  0  0  0  0  0  0
   -8.3437  -28.6663  -36.2462 H   0  0  0  0  0  0  0  0  0  0  0  0
   -9.1471  -29.7317  -35.0816 H   0  0  0  0  0  0  0  0  0  0  0  0
  -12.7930  -24.1994  -37.4524 H   0  0  0  0  0  0  0  0  0  0  0  0
  -14.6670  -23.5588  -38.0322 H   0  0  0  0  0  0  0  0  0  0  0  0
  1  2  2  0  0  0  0
  1  3  1  0  0  0  0
  2  4  1  0  0  0  0
  3 12  2  0  0  0  0
  4 13  2  0  0  0  0
  5  7  2  0  0  0  0
  5 14  1  0  0  0  0
  6  8  1  0  0  0  0
  6 15  2  0  0  0  0
  7 16  1  0  0  0  0
  8 17  2  0  0  0  0
  9 11  1  0  0  0  0
  9 14  2  0  0  0  0
 10 15  1  0  0  0  0
 10 18  2  0  0  0  0
 11 16  2  0  0  0  0
 11 22  1  0  0  0  0
 12 13  1  0  0  0  0
 12 28  1  0  0  0  0
 13 29  1  0  0  0  0
 14 30  1  0  0  0  0
 15 31  1  0  0  0  0
 16 33  1  0  0  0  0
 17 18  1  0  0  0  0
 17 36  1  0  0  0  0
 18 37  1  0  0  0  0
 19 26  1  0  0  0  0
 19 28  2  0  0  0  0
 19 29  1  0  0  0  0
 20 29  1  0  0  0  0
 20 32  2  0  0  0  0
 20 34  1  0  0  0  0
 21 30  1  0  0  0  0
 21 31  1  0  0  0  0
 21 35  2  0  0  0  0
 23 27  1  0  0  0  0
 24 27  1  0  0  0  0
 25 27  1  0  0  0  0
 26 33  1  0  0  0  0
 27 34  1  0  0  0  0
  1 38  1  0  0  0  0
  2 39  1  0  0  0  0
  3 40  1  0  0  0  0
  4 41  1  0  0  0  0
  5 42  1  0  0  0  0
  6 43  1  0  0  0  0
  7 44  1  0  0  0  0
  8 45  1  0  0  0  0
  9 46  1  0  0  0  0
 10 47  1  0  0  0  0
 22 48  1  0  0  0  0
 22 49  1  0  0  0  0
 22 50  1  0  0  0  0
 23 51  1  0  0  0  0
 23 52  1  0  0  0  0
 23 53  1  0  0  0  0
 24 54  1  0  0  0  0
 24 55  1  0  0  0  0
 24 56  1  0  0  0  0
 25 57  1  0  0  0  0
 25 58  1  0  0  0  0
 25 59  1  0  0  0  0
 26 60  1  0  0  0  0
 26 61  1  0  0  0  0
 30 62  1  0  0  0  0
 31 63  1  0  0  0  0
M  END
> <Clean Energy>
84.5744

> <SourceTag>
Livi_174a

> <Activity_FLAP>
100

> <Activity_sEH>
0.7

> <Gold.Version>
5.2

> <Gold.Id.Protein>
6HGV|6HGV_protein|mol2

> <Gold.Goldscore.Fitness>
88.1192

> <Gold.Goldscore.Internal.Vdw>
-15.7960

> <Gold.Goldscore.Internal.Torsion>
-12.5037

> <Gold.Goldscore.External.Vdw>
68.8290

> <Gold.Goldscore.Internal.HBond>
0.0000

> <Gold.Goldscore.External.HBond>
0.0000

> <Gold.Goldscore.Internal.Correction>
-21.7791

> <Gold.Goldscore.Internal.Vdw.Weighted>
-15.7960

> <Gold.Goldscore.Internal.Torsion.Weighted>
-12.5037

> <Gold.Goldscore.External.Vdw.Weighted>
94.6398

> <Gold.Goldscore.Internal.HBond.Weighted>
0.0000

> <Gold.Goldscore.External.HBond.Weighted>
0.0000

> <Gold.Goldscore.Internal.Correction.Weighted>
-21.7791

> <Gold.Protein.RotatedTorsions>
[ 3781 1176 1175 1172 ] final  124.94 input   60.00 | X-H torsion
[ 3847 1247 1246 1244 ] final   84.97 input   60.00 | X-H torsion
[ 4507 1931 1930 1928 ] final  -60.96 input   60.00 | X-H torsion
[ 3677 1070 1069 1066 ] final  -83.64 input   60.00 | X-H torsion
[ 3525  925  924  922 ] final  -20.71 input   59.99 | X-H torsion
[ 4531 1957 1955 1953 ] final   73.94 input   60.00 | X-H torsion

> <Gold.Protein.ActiveResidues>
 PHE267  PRO268  MET310  ASP335  TRP336  MET339  TYR343  THR360  PRO361  ILE363 
 PRO371  SER374  ILE375  ASN378  PHE381  TYR383  GLN384  PHE387  LEU408  LEU417 
 MET419  LEU428  TYR466  MET469  ASN472  ASP496  VAL498  LEU499  MET503  HIS524 
 TRP525 

> <Gold.Protein.RotatedAtoms>
   -3.7369  -29.5128  -30.1712 H   0  0  0  0  0  0  0  0  0  0  0  0  # atno 3525 bound_to 925 
  -11.9784  -23.8309  -31.3409 H   0  0  0  0  0  0  0  0  0  0  0  0  # atno 3677 bound_to 1070
   -9.7745  -37.0360  -32.3801 H   0  0  0  0  0  0  0  0  0  0  0  0  # atno 3781 bound_to 1176
  -14.5282  -28.7430  -37.5091 H   0  0  0  0  0  0  0  0  0  0  0  0  # atno 3847 bound_to 1247
  -13.6839  -25.2158  -39.9303 H   0  0  0  0  0  0  0  0  0  0  0  0  # atno 4507 bound_to 1931
   -2.9641  -33.6218  -36.6880 H   0  0  0  0  0  0  0  0  0  0  0  0  # atno 4531 bound_to 1957
  -10.8228  -37.2749  -33.6016 LP  0  0  0  0  0  0  0  0  0  0  0  0  # atno 5205 bound_to 1176
   -9.5152  -36.3211  -33.8188 LP  0  0  0  0  0  0  0  0  0  0  0  0  # atno 5206 bound_to 1176
  -16.0263  -28.2515  -37.1064 LP  0  0  0  0  0  0  0  0  0  0  0  0  # atno 5215 bound_to 1247
  -15.0147  -27.2379  -37.8912 LP  0  0  0  0  0  0  0  0  0  0  0  0  # atno 5216 bound_to 1247
  -12.8609  -23.8341  -40.1781 LP  0  0  0  0  0  0  0  0  0  0  0  0  # atno 5217 bound_to 1931
  -12.6456  -24.6798  -38.7978 LP  0  0  0  0  0  0  0  0  0  0  0  0  # atno 5218 bound_to 1931
  -11.1873  -22.4626  -30.9536 LP  0  0  0  0  0  0  0  0  0  0  0  0  # atno 5224 bound_to 1070
  -12.6882  -22.7343  -30.3704 LP  0  0  0  0  0  0  0  0  0  0  0  0  # atno 5225 bound_to 1070

$$$$
MSC-065|Lisa_paper2_min|sdf|12|dock8
  -GOLD-  10182017153D 1   1.00000     0.00000

 63 66  0  0  0  0  0  0  0  0  1 V2000
   -3.2458  -29.3550  -33.1315 C   0  0  0  0  0  0  0  0  0  0  0  0
   -3.4476  -30.7298  -33.2339 C   0  0  0  0  0  0  0  0  0  0  0  0
   -4.2591  -28.4568  -33.4787 C   0  0  0  0  0  0  0  0  0  0  0  0
   -4.6651  -31.2520  -33.6848 C   0  0  0  0  0  0  0  0  0  0  0  0
  -12.6708  -27.5603  -35.7984 C   0  0  0  0  0  0  0  0  0  0  0  0
  -17.3116  -23.7827  -37.8190 C   0  0  0  0  0  0  0  0  0  0  0  0
  -11.3298  -27.9361  -35.7207 C   0  0  0  0  0  0  0  0  0  0  0  0
  -18.3440  -23.2800  -38.6109 C   0  0  0  0  0  0  0  0  0  0  0  0
  -12.1915  -25.5814  -34.4980 C   0  0  0  0  0  0  0  0  0  0  0  0
  -18.8972  -25.1620  -36.6273 C   0  0  0  0  0  0  0  0  0  0  0  0
  -10.8505  -25.9571  -34.4203 C   0  0  0  0  0  0  0  0  0  0  0  0
   -5.4888  -28.9646  -33.9340 C   0  0  0  0  0  0  0  0  0  0  0  0
   -5.6762  -30.3440  -34.0309 C   0  0  0  0  0  0  0  0  0  0  0  0
  -13.1017  -26.3829  -35.1871 C   0  0  0  0  0  0  0  0  0  0  0  0
  -17.5882  -24.7237  -36.8272 C   0  0  0  0  0  0  0  0  0  0  0  0
  -10.4197  -27.1346  -35.0317 C   0  0  0  0  0  0  0  0  0  0  0  0
  -19.6531  -23.7183  -38.4110 C   0  0  0  0  0  0  0  0  0  0  0  0
  -19.9296  -24.6593  -37.4191 C   0  0  0  0  0  0  0  0  0  0  0  0
   -7.4739  -29.2187  -34.6570 C   0  0  0  0  0  0  0  0  0  0  0  0
   -7.6423  -31.6971  -34.7698 C   0  0  0  0  0  0  0  0  0  0  0  0
  -15.2131  -25.4970  -36.3188 C   0  0  0  0  0  0  0  0  0  0  0  0
   -9.8900  -25.0872  -33.6788 C   0  0  0  0  0  0  0  0  0  0  0  0
   -8.0197  -34.3735  -35.8092 C   0  0  0  0  0  0  0  0  0  0  0  0
   -6.4483  -35.0448  -33.9681 C   0  0  0  0  0  0  0  0  0  0  0  0
   -8.6229  -33.9198  -33.4082 C   0  0  0  0  0  0  0  0  0  0  0  0
   -8.8376  -28.9067  -35.1436 C   0  0  0  0  0  0  0  0  0  0  0  0
   -7.4845  -34.0191  -34.4226 C   0  0  0  0  0  0  0  0  0  0  0  0
   -6.6117  -28.2870  -34.3259 N   0  0  0  0  0  0  0  0  0  0  0  0
   -6.9745  -30.4966  -34.5031 N   0  0  0  0  0  0  0  0  0  0  0  0
  -14.4432  -26.0073  -35.2650 N   0  0  0  0  0  0  0  0  0  0  0  0
  -16.5386  -25.2347  -36.0232 N   0  0  0  0  0  0  0  0  0  0  0  0
   -8.7895  -31.7077  -35.1845 O   0  0  0  0  0  0  0  0  0  0  0  0
   -9.1077  -27.5181  -34.9654 O   0  0  0  0  0  0  0  0  0  0  0  0
   -6.8296  -32.7494  -34.4982 O   0  0  0  0  0  0  0  0  0  0  0  0
  -14.4823  -25.3995  -37.8342 S   0  0  0  0  0  0  0  0  0  0  0  0
  -20.8885  -23.0557  -39.4222 Cl  0  0  0  0  0  0  0  0  0  0  0  0
  -21.5310  -25.2394  -37.1220 Cl  0  0  0  0  0  0  0  0  0  0  0  0
   -2.2908  -28.9754  -32.7785 H   0  0  0  0  0  0  0  0  0  0  0  0
   -2.6455  -31.4103  -32.9591 H   0  0  0  0  0  0  0  0  0  0  0  0
   -4.0945  -27.3868  -33.3967 H   0  0  0  0  0  0  0  0  0  0  0  0
   -4.7966  -32.3252  -33.7554 H   0  0  0  0  0  0  0  0  0  0  0  0
  -13.3713  -28.1928  -36.3380 H   0  0  0  0  0  0  0  0  0  0  0  0
  -16.2949  -23.4355  -37.9842 H   0  0  0  0  0  0  0  0  0  0  0  0
  -11.0007  -28.8546  -36.1993 H   0  0  0  0  0  0  0  0  0  0  0  0
  -18.1099  -22.5483  -39.3802 H   0  0  0  0  0  0  0  0  0  0  0  0
  -12.5261  -24.6628  -34.0208 H   0  0  0  0  0  0  0  0  0  0  0  0
  -19.1070  -25.8953  -35.8511 H   0  0  0  0  0  0  0  0  0  0  0  0
  -10.2469  -24.0507  -33.6669 H   0  0  0  0  0  0  0  0  0  0  0  0
   -9.7664  -25.4259  -32.6426 H   0  0  0  0  0  0  0  0  0  0  0  0
   -8.8956  -25.1091  -34.1422 H   0  0  0  0  0  0  0  0  0  0  0  0
   -8.1720  -35.4546  -35.9035 H   0  0  0  0  0  0  0  0  0  0  0  0
   -8.9692  -33.8692  -36.0162 H   0  0  0  0  0  0  0  0  0  0  0  0
   -7.3019  -34.0933  -36.5888 H   0  0  0  0  0  0  0  0  0  0  0  0
   -6.0326  -34.7729  -32.9912 H   0  0  0  0  0  0  0  0  0  0  0  0
   -5.6027  -35.0801  -34.6645 H   0  0  0  0  0  0  0  0  0  0  0  0
   -6.8789  -36.0487  -33.8945 H   0  0  0  0  0  0  0  0  0  0  0  0
   -8.9593  -34.9161  -33.0991 H   0  0  0  0  0  0  0  0  0  0  0  0
   -8.3194  -33.3648  -32.5145 H   0  0  0  0  0  0  0  0  0  0  0  0
   -9.4945  -33.4217  -33.8480 H   0  0  0  0  0  0  0  0  0  0  0  0
   -8.9570  -29.1455  -36.2132 H   0  0  0  0  0  0  0  0  0  0  0  0
   -9.6052  -29.4809  -34.5994 H   0  0  0  0  0  0  0  0  0  0  0  0
  -14.9926  -26.1513  -34.4092 H   0  0  0  0  0  0  0  0  0  0  0  0
  -16.8396  -25.5469  -35.1033 H   0  0  0  0  0  0  0  0  0  0  0  0
  1  2  2  0  0  0  0
  1  3  1  0  0  0  0
  2  4  1  0  0  0  0
  3 12  2  0  0  0  0
  4 13  2  0  0  0  0
  5  7  2  0  0  0  0
  5 14  1  0  0  0  0
  6  8  1  0  0  0  0
  6 15  2  0  0  0  0
  7 16  1  0  0  0  0
  8 17  2  0  0  0  0
  9 11  1  0  0  0  0
  9 14  2  0  0  0  0
 10 15  1  0  0  0  0
 10 18  2  0  0  0  0
 11 16  2  0  0  0  0
 11 22  1  0  0  0  0
 12 13  1  0  0  0  0
 12 28  1  0  0  0  0
 13 29  1  0  0  0  0
 14 30  1  0  0  0  0
 15 31  1  0  0  0  0
 16 33  1  0  0  0  0
 17 18  1  0  0  0  0
 17 36  1  0  0  0  0
 18 37  1  0  0  0  0
 19 26  1  0  0  0  0
 19 28  2  0  0  0  0
 19 29  1  0  0  0  0
 20 29  1  0  0  0  0
 20 32  2  0  0  0  0
 20 34  1  0  0  0  0
 21 30  1  0  0  0  0
 21 31  1  0  0  0  0
 21 35  2  0  0  0  0
 23 27  1  0  0  0  0
 24 27  1  0  0  0  0
 25 27  1  0  0  0  0
 26 33  1  0  0  0  0
 27 34  1  0  0  0  0
  1 38  1  0  0  0  0
  2 39  1  0  0  0  0
  3 40  1  0  0  0  0
  4 41  1  0  0  0  0
  5 42  1  0  0  0  0
  6 43  1  0  0  0  0
  7 44  1  0  0  0  0
  8 45  1  0  0  0  0
  9 46  1  0  0  0  0
 10 47  1  0  0  0  0
 22 48  1  0  0  0  0
 22 49  1  0  0  0  0
 22 50  1  0  0  0  0
 23 51  1  0  0  0  0
 23 52  1  0  0  0  0
 23 53  1  0  0  0  0
 24 54  1  0  0  0  0
 24 55  1  0  0  0  0
 24 56  1  0  0  0  0
 25 57  1  0  0  0  0
 25 58  1  0  0  0  0
 25 59  1  0  0  0  0
 26 60  1  0  0  0  0
 26 61  1  0  0  0  0
 30 62  1  0  0  0  0
 31 63  1  0  0  0  0
M  END
> <Clean Energy>
84.5744

> <SourceTag>
Livi_174a

> <Activity_FLAP>
100

> <Activity_sEH>
0.7

> <Gold.Version>
5.2

> <Gold.Id.Protein>
6HGV|6HGV_protein|mol2

> <Gold.Goldscore.Fitness>
87.4404

> <Gold.Goldscore.Internal.Vdw>
-10.6116

> <Gold.Goldscore.Internal.Torsion>
-11.7123

> <Gold.Goldscore.External.Vdw>
64.5153

> <Gold.Goldscore.Internal.HBond>
0.0000

> <Gold.Goldscore.External.HBond>
0.1549

> <Gold.Goldscore.Internal.Correction>
-20.9009

> <Gold.Goldscore.Hbonds>
donor molecule, donor type, donor heavy atom, donor atom, acceptor molecule, acceptor atom, score
      P1  H  1931  4507       L1    35  0.15

> <Gold.Goldscore.Internal.Vdw.Weighted>
-10.6116

> <Gold.Goldscore.Internal.Torsion.Weighted>
-11.7123

> <Gold.Goldscore.External.Vdw.Weighted>
88.7085

> <Gold.Goldscore.Internal.HBond.Weighted>
0.0000

> <Gold.Goldscore.External.HBond.Weighted>
0.1549

> <Gold.Goldscore.Internal.Correction.Weighted>
-20.9009

> <Gold.Protein.RotatedTorsions>
[ 3781 1176 1175 1172 ] final  -68.29 input   60.00 | X-H torsion
[ 3847 1247 1246 1244 ] final   12.91 input   60.00 | X-H torsion
[ 4507 1931 1930 1928 ] final    2.21 input   60.00 | X-H torsion
[ 3677 1070 1069 1066 ] final -105.71 input   60.00 | X-H torsion
[ 3525  925  924  922 ] final  -17.78 input   59.99 | X-H torsion
[ 4531 1957 1955 1953 ] final   -3.78 input   60.00 | X-H torsion

> <Gold.Protein.ActiveResidues>
 PHE267  PRO268  MET310  ASP335  TRP336  MET339  TYR343  THR360  PRO361  ILE363 
 PRO371  SER374  ILE375  ASN378  PHE381  TYR383  GLN384  PHE387  LEU408  LEU417 
 MET419  LEU428  TYR466  MET469  ASN472  ASP496  VAL498  LEU499  MET503  HIS524 
 TRP525 

> <Gold.Protein.RotatedAtoms>
   -3.7233  -29.5145  -30.2172 H   0  0  0  0  0  0  0  0  0  0  0  0  # atno 3525 bound_to 925 
  -11.6531  -23.7123  -31.4333 H   0  0  0  0  0  0  0  0  0  0  0  0  # atno 3677 bound_to 1070
  -10.1191  -36.6010  -34.1554 H   0  0  0  0  0  0  0  0  0  0  0  0  # atno 3781 bound_to 1176
  -15.5369  -28.8368  -37.0773 H   0  0  0  0  0  0  0  0  0  0  0  0  # atno 3847 bound_to 1247
  -13.2335  -25.2990  -39.0631 H   0  0  0  0  0  0  0  0  0  0  0  0  # atno 4507 bound_to 1931
   -2.8144  -32.4565  -36.6963 H   0  0  0  0  0  0  0  0  0  0  0  0  # atno 4531 bound_to 1957
   -9.3069  -36.5841  -32.7454 LP  0  0  0  0  0  0  0  0  0  0  0  0  # atno 5205 bound_to 1176
  -10.6842  -37.4499  -32.8873 LP  0  0  0  0  0  0  0  0  0  0  0  0  # atno 5206 bound_to 1176
  -15.7164  -27.3031  -37.5909 LP  0  0  0  0  0  0  0  0  0  0  0  0  # atno 5215 bound_to 1247
  -14.3086  -28.0918  -37.8417 LP  0  0  0  0  0  0  0  0  0  0  0  0  # atno 5216 bound_to 1247
  -13.5113  -24.5199  -40.4645 LP  0  0  0  0  0  0  0  0  0  0  0  0  # atno 5217 bound_to 1931
  -12.4488  -23.9101  -39.3847 LP  0  0  0  0  0  0  0  0  0  0  0  0  # atno 5218 bound_to 1931
  -11.3970  -22.2639  -30.7373 LP  0  0  0  0  0  0  0  0  0  0  0  0  # atno 5224 bound_to 1070
  -12.8061  -23.0524  -30.4936 LP  0  0  0  0  0  0  0  0  0  0  0  0  # atno 5225 bound_to 1070

$$$$
MSC-065|Lisa_paper2_min|sdf|12|dock7
  -GOLD-  10182017153D 1   1.00000     0.00000

 63 66  0  0  0  0  0  0  0  0  1 V2000
   -3.4787  -30.8818  -33.2024 C   0  0  0  0  0  0  0  0  0  0  0  0
   -4.1962  -31.3509  -32.1040 C   0  0  0  0  0  0  0  0  0  0  0  0
   -4.1246  -30.2039  -34.2404 C   0  0  0  0  0  0  0  0  0  0  0  0
   -5.5788  -31.1587  -32.0057 C   0  0  0  0  0  0  0  0  0  0  0  0
  -11.9359  -26.7682  -36.6364 C   0  0  0  0  0  0  0  0  0  0  0  0
  -16.9037  -23.1037  -39.2366 C   0  0  0  0  0  0  0  0  0  0  0  0
  -10.9508  -27.5373  -36.0168 C   0  0  0  0  0  0  0  0  0  0  0  0
  -18.2529  -22.9685  -39.5636 C   0  0  0  0  0  0  0  0  0  0  0  0
  -11.3270  -24.8791  -35.2589 C   0  0  0  0  0  0  0  0  0  0  0  0
  -17.5133  -24.2176  -37.1813 C   0  0  0  0  0  0  0  0  0  0  0  0
  -10.3419  -25.6482  -34.6394 C   0  0  0  0  0  0  0  0  0  0  0  0
   -5.5138  -30.0023  -34.1578 C   0  0  0  0  0  0  0  0  0  0  0  0
   -6.2188  -30.4777  -33.0513 C   0  0  0  0  0  0  0  0  0  0  0  0
  -12.1239  -25.4391  -36.2574 C   0  0  0  0  0  0  0  0  0  0  0  0
  -16.5339  -23.7283  -38.0455 C   0  0  0  0  0  0  0  0  0  0  0  0
  -10.1540  -26.9773  -35.0184 C   0  0  0  0  0  0  0  0  0  0  0  0
  -19.2324  -23.4578  -38.6993 C   0  0  0  0  0  0  0  0  0  0  0  0
  -18.8625  -24.0824  -37.5082 C   0  0  0  0  0  0  0  0  0  0  0  0
   -7.5421  -29.4573  -34.4995 C   0  0  0  0  0  0  0  0  0  0  0  0
   -8.6447  -30.3656  -32.4641 C   0  0  0  0  0  0  0  0  0  0  0  0
  -14.4900  -24.8586  -37.0245 C   0  0  0  0  0  0  0  0  0  0  0  0
   -9.4980  -25.0326  -33.5725 C   0  0  0  0  0  0  0  0  0  0  0  0
  -12.1496  -29.5472  -33.1026 C   0  0  0  0  0  0  0  0  0  0  0  0
  -11.1003  -31.5143  -31.9456 C   0  0  0  0  0  0  0  0  0  0  0  0
  -10.8392  -29.2104  -30.9803 C   0  0  0  0  0  0  0  0  0  0  0  0
   -8.7512  -28.8938  -35.1432 C   0  0  0  0  0  0  0  0  0  0  0  0
  -10.9648  -30.0272  -32.2655 C   0  0  0  0  0  0  0  0  0  0  0  0
   -6.3501  -29.3750  -35.0413 N   0  0  0  0  0  0  0  0  0  0  0  0
   -7.5400  -30.1157  -33.2860 N   0  0  0  0  0  0  0  0  0  0  0  0
  -13.1093  -24.6700  -36.8773 N   0  0  0  0  0  0  0  0  0  0  0  0
  -15.1626  -23.8660  -37.7140 N   0  0  0  0  0  0  0  0  0  0  0  0
   -8.5277  -30.9607  -31.4056 O   0  0  0  0  0  0  0  0  0  0  0  0
   -9.1920  -27.7462  -34.4211 O   0  0  0  0  0  0  0  0  0  0  0  0
   -9.7683  -29.8584  -33.0314 O   0  0  0  0  0  0  0  0  0  0  0  0
  -15.1791  -26.1780  -36.2342 S   0  0  0  0  0  0  0  0  0  0  0  0
  -20.8866  -23.2571  -39.1591 Cl  0  0  0  0  0  0  0  0  0  0  0  0
  -20.0294  -24.7070  -36.3958 Cl  0  0  0  0  0  0  0  0  0  0  0  0
   -2.4056  -31.0442  -33.2543 H   0  0  0  0  0  0  0  0  0  0  0  0
   -3.6736  -31.8761  -31.3083 H   0  0  0  0  0  0  0  0  0  0  0  0
   -3.5591  -29.8415  -35.0934 H   0  0  0  0  0  0  0  0  0  0  0  0
   -6.1136  -31.5335  -31.1410 H   0  0  0  0  0  0  0  0  0  0  0  0
  -12.5511  -27.2152  -37.4132 H   0  0  0  0  0  0  0  0  0  0  0  0
  -16.1485  -22.7202  -39.9179 H   0  0  0  0  0  0  0  0  0  0  0  0
  -10.8094  -28.5722  -36.3169 H   0  0  0  0  0  0  0  0  0  0  0  0
  -18.5228  -22.4804  -40.4967 H   0  0  0  0  0  0  0  0  0  0  0  0
  -11.4725  -23.8426  -34.9623 H   0  0  0  0  0  0  0  0  0  0  0  0
  -17.2187  -24.7027  -36.2528 H   0  0  0  0  0  0  0  0  0  0  0  0
   -9.8992  -24.0527  -33.2884 H   0  0  0  0  0  0  0  0  0  0  0  0
   -9.4623  -25.6679  -32.6788 H   0  0  0  0  0  0  0  0  0  0  0  0
   -8.4628  -24.9013  -33.9120 H   0  0  0  0  0  0  0  0  0  0  0  0
  -12.0613  -28.4780  -33.3257 H   0  0  0  0  0  0  0  0  0  0  0  0
  -12.2239  -30.0947  -34.0478 H   0  0  0  0  0  0  0  0  0  0  0  0
  -13.0911  -29.6719  -32.5553 H   0  0  0  0  0  0  0  0  0  0  0  0
  -10.5880  -31.7600  -31.0083 H   0  0  0  0  0  0  0  0  0  0  0  0
  -10.6295  -32.1255  -32.7241 H   0  0  0  0  0  0  0  0  0  0  0  0
  -12.1494  -31.8144  -31.8562 H   0  0  0  0  0  0  0  0  0  0  0  0
   -9.9822  -29.5465  -30.3855 H   0  0  0  0  0  0  0  0  0  0  0  0
  -10.7162  -28.1431  -31.1912 H   0  0  0  0  0  0  0  0  0  0  0  0
  -11.7248  -29.3405  -30.3477 H   0  0  0  0  0  0  0  0  0  0  0  0
   -8.5588  -28.5910  -36.1855 H   0  0  0  0  0  0  0  0  0  0  0  0
   -9.5765  -29.6242  -35.1689 H   0  0  0  0  0  0  0  0  0  0  0  0
  -12.7874  -23.7823  -37.2817 H   0  0  0  0  0  0  0  0  0  0  0  0
  -14.6002  -23.0500  -37.9421 H   0  0  0  0  0  0  0  0  0  0  0  0
  1  2  2  0  0  0  0
  1  3  1  0  0  0  0
  2  4  1  0  0  0  0
  3 12  2  0  0  0  0
  4 13  2  0  0  0  0
  5  7  2  0  0  0  0
  5 14  1  0  0  0  0
  6  8  1  0  0  0  0
  6 15  2  0  0  0  0
  7 16  1  0  0  0  0
  8 17  2  0  0  0  0
  9 11  1  0  0  0  0
  9 14  2  0  0  0  0
 10 15  1  0  0  0  0
 10 18  2  0  0  0  0
 11 16  2  0  0  0  0
 11 22  1  0  0  0  0
 12 13  1  0  0  0  0
 12 28  1  0  0  0  0
 13 29  1  0  0  0  0
 14 30  1  0  0  0  0
 15 31  1  0  0  0  0
 16 33  1  0  0  0  0
 17 18  1  0  0  0  0
 17 36  1  0  0  0  0
 18 37  1  0  0  0  0
 19 26  1  0  0  0  0
 19 28  2  0  0  0  0
 19 29  1  0  0  0  0
 20 29  1  0  0  0  0
 20 32  2  0  0  0  0
 20 34  1  0  0  0  0
 21 30  1  0  0  0  0
 21 31  1  0  0  0  0
 21 35  2  0  0  0  0
 23 27  1  0  0  0  0
 24 27  1  0  0  0  0
 25 27  1  0  0  0  0
 26 33  1  0  0  0  0
 27 34  1  0  0  0  0
  1 38  1  0  0  0  0
  2 39  1  0  0  0  0
  3 40  1  0  0  0  0
  4 41  1  0  0  0  0
  5 42  1  0  0  0  0
  6 43  1  0  0  0  0
  7 44  1  0  0  0  0
  8 45  1  0  0  0  0
  9 46  1  0  0  0  0
 10 47  1  0  0  0  0
 22 48  1  0  0  0  0
 22 49  1  0  0  0  0
 22 50  1  0  0  0  0
 23 51  1  0  0  0  0
 23 52  1  0  0  0  0
 23 53  1  0  0  0  0
 24 54  1  0  0  0  0
 24 55  1  0  0  0  0
 24 56  1  0  0  0  0
 25 57  1  0  0  0  0
 25 58  1  0  0  0  0
 25 59  1  0  0  0  0
 26 60  1  0  0  0  0
 26 61  1  0  0  0  0
 30 62  1  0  0  0  0
 31 63  1  0  0  0  0
M  END
> <Clean Energy>
84.5744

> <SourceTag>
Livi_174a

> <Activity_FLAP>
100

> <Activity_sEH>
0.7

> <Gold.Version>
5.2

> <Gold.Id.Protein>
6HGV|6HGV_protein|mol2

> <Gold.Goldscore.Fitness>
84.7675

> <Gold.Goldscore.Internal.Vdw>
-14.9170

> <Gold.Goldscore.Internal.Torsion>
-9.7797

> <Gold.Goldscore.External.Vdw>
63.7627

> <Gold.Goldscore.Internal.HBond>
0.0000

> <Gold.Goldscore.External.HBond>
0.1279

> <Gold.Goldscore.Internal.Correction>
-21.6626

> <Gold.Goldscore.Hbonds>
donor molecule, donor type, donor heavy atom, donor atom, acceptor molecule, acceptor atom, score
      P1  H  1247  3847       L1    35  0.02
      L1  H    30    62       P1   854  0.02

> <Gold.Goldscore.Internal.Vdw.Weighted>
-14.9170

> <Gold.Goldscore.Internal.Torsion.Weighted>
-9.7797

> <Gold.Goldscore.External.Vdw.Weighted>
87.6737

> <Gold.Goldscore.Internal.HBond.Weighted>
0.0000

> <Gold.Goldscore.External.HBond.Weighted>
0.1279

> <Gold.Goldscore.Internal.Correction.Weighted>
-21.6626

> <Gold.Protein.RotatedTorsions>
[ 3781 1176 1175 1172 ] final -134.94 input   60.00 | X-H torsion
[ 3847 1247 1246 1244 ] final -116.17 input   60.00 | X-H torsion
[ 4507 1931 1930 1928 ] final  -51.94 input   60.00 | X-H torsion
[ 3677 1070 1069 1066 ] final  -95.77 input   60.00 | X-H torsion
[ 3525  925  924  922 ] final  -46.90 input   59.99 | X-H torsion
[ 4531 1957 1955 1953 ] final  -10.64 input   60.00 | X-H torsion

> <Gold.Protein.ActiveResidues>
 PHE267  PRO268  MET310  ASP335  TRP336  MET339  TYR343  THR360  PRO361  ILE363 
 PRO371  SER374  ILE375  ASN378  PHE381  TYR383  GLN384  PHE387  LEU408  LEU417 
 MET419  LEU428  TYR466  MET469  ASN472  ASP496  VAL498  LEU499  MET503  HIS524 
 TRP525 

> <Gold.Protein.RotatedAtoms>
   -3.7604  -29.5412  -29.7486 H   0  0  0  0  0  0  0  0  0  0  0  0  # atno 3525 bound_to 925 
  -11.7971  -23.7799  -31.4010 H   0  0  0  0  0  0  0  0  0  0  0  0  # atno 3677 bound_to 1070
   -9.3440  -36.3131  -33.5433 H   0  0  0  0  0  0  0  0  0  0  0  0  # atno 3781 bound_to 1176
  -15.5956  -27.2512  -37.6608 H   0  0  0  0  0  0  0  0  0  0  0  0  # atno 3847 bound_to 1247
  -13.6569  -25.2839  -39.8026 H   0  0  0  0  0  0  0  0  0  0  0  0  # atno 4507 bound_to 1931
   -2.7305  -32.3838  -36.7110 H   0  0  0  0  0  0  0  0  0  0  0  0  # atno 4531 bound_to 1957
  -10.0464  -37.2130  -32.3837 LP  0  0  0  0  0  0  0  0  0  0  0  0  # atno 5205 bound_to 1176
  -10.7252  -37.1109  -33.8654 LP  0  0  0  0  0  0  0  0  0  0  0  0  # atno 5206 bound_to 1176
  -14.3035  -28.2319  -37.7902 LP  0  0  0  0  0  0  0  0  0  0  0  0  # atno 5215 bound_to 1247
  -15.6625  -28.7599  -37.0547 LP  0  0  0  0  0  0  0  0  0  0  0  0  # atno 5216 bound_to 1247
  -12.9579  -23.8921  -40.2740 LP  0  0  0  0  0  0  0  0  0  0  0  0  # atno 5217 bound_to 1931
  -12.5757  -24.5531  -38.8305 LP  0  0  0  0  0  0  0  0  0  0  0  0  # atno 5218 bound_to 1931
  -11.2902  -22.3413  -30.8339 LP  0  0  0  0  0  0  0  0  0  0  0  0  # atno 5224 bound_to 1070
  -12.7678  -22.9069  -30.4296 LP  0  0  0  0  0  0  0  0  0  0  0  0  # atno 5225 bound_to 1070

$$$$
MSC-065|Lisa_paper2_min|sdf|12|dock10
  -GOLD-  10182017163D 1   1.00000     0.00000

 63 66  0  0  0  0  0  0  0  0  1 V2000
   -3.2612  -29.9592  -33.0152 C   0  0  0  0  0  0  0  0  0  0  0  0
   -3.6083  -31.3030  -33.1375 C   0  0  0  0  0  0  0  0  0  0  0  0
   -4.1669  -28.9533  -33.3643 C   0  0  0  0  0  0  0  0  0  0  0  0
   -4.8682  -31.6860  -33.6109 C   0  0  0  0  0  0  0  0  0  0  0  0
  -11.8993  -26.7641  -36.6216 C   0  0  0  0  0  0  0  0  0  0  0  0
  -16.9489  -23.1611  -39.1766 C   0  0  0  0  0  0  0  0  0  0  0  0
  -10.8977  -27.5141  -36.0053 C   0  0  0  0  0  0  0  0  0  0  0  0
  -18.3054  -23.0391  -39.4773 C   0  0  0  0  0  0  0  0  0  0  0  0
  -11.2890  -24.8484  -35.2819 C   0  0  0  0  0  0  0  0  0  0  0  0
  -17.5077  -24.2793  -37.1091 C   0  0  0  0  0  0  0  0  0  0  0  0
  -10.2874  -25.5984  -34.6656 C   0  0  0  0  0  0  0  0  0  0  0  0
   -5.4375  -29.3205  -33.8421 C   0  0  0  0  0  0  0  0  0  0  0  0
   -5.7708  -30.6705  -33.9588 C   0  0  0  0  0  0  0  0  0  0  0  0
  -12.0949  -25.4312  -36.2599 C   0  0  0  0  0  0  0  0  0  0  0  0
  -16.5500  -23.7813  -37.9926 C   0  0  0  0  0  0  0  0  0  0  0  0
  -10.0918  -26.9313  -35.0273 C   0  0  0  0  0  0  0  0  0  0  0  0
  -19.2632  -23.5371  -38.5938 C   0  0  0  0  0  0  0  0  0  0  0  0
  -18.8642  -24.1572  -37.4098 C   0  0  0  0  0  0  0  0  0  0  0  0
   -7.4277  -29.3513  -34.5942 C   0  0  0  0  0  0  0  0  0  0  0  0
   -7.8601  -31.7956  -34.7404 C   0  0  0  0  0  0  0  0  0  0  0  0
  -14.4796  -24.8786  -36.9892 C   0  0  0  0  0  0  0  0  0  0  0  0
   -9.4339  -24.9585  -33.6208 C   0  0  0  0  0  0  0  0  0  0  0  0
   -8.1965  -34.2953  -36.1627 C   0  0  0  0  0  0  0  0  0  0  0  0
   -7.0180  -35.2965  -34.1832 C   0  0  0  0  0  0  0  0  0  0  0  0
   -9.1908  -34.0788  -33.8607 C   0  0  0  0  0  0  0  0  0  0  0  0
   -8.7427  -28.8888  -35.0947 C   0  0  0  0  0  0  0  0  0  0  0  0
   -7.8975  -34.1474  -34.6715 C   0  0  0  0  0  0  0  0  0  0  0  0
   -6.4752  -28.5216  -34.2401 N   0  0  0  0  0  0  0  0  0  0  0  0
   -7.0709  -30.6771  -34.4499 N   0  0  0  0  0  0  0  0  0  0  0  0
  -13.0968  -24.6812  -36.8767 N   0  0  0  0  0  0  0  0  0  0  0  0
  -15.1713  -23.9056  -37.6877 N   0  0  0  0  0  0  0  0  0  0  0  0
   -8.9957  -31.6780  -35.1702 O   0  0  0  0  0  0  0  0  0  0  0  0
   -9.1137  -27.6816  -34.4329 O   0  0  0  0  0  0  0  0  0  0  0  0
   -7.1693  -32.9324  -34.4715 O   0  0  0  0  0  0  0  0  0  0  0  0
  -15.1456  -26.1811  -36.1524 S   0  0  0  0  0  0  0  0  0  0  0  0
  -20.9279  -23.3525  -39.0214 Cl  0  0  0  0  0  0  0  0  0  0  0  0
  -20.0033  -24.7921  -36.2746 Cl  0  0  0  0  0  0  0  0  0  0  0  0
   -2.2761  -29.6887  -32.6449 H   0  0  0  0  0  0  0  0  0  0  0  0
   -2.8880  -32.0690  -32.8608 H   0  0  0  0  0  0  0  0  0  0  0  0
   -3.8894  -27.9082  -33.2667 H   0  0  0  0  0  0  0  0  0  0  0  0
   -5.1135  -32.7380  -33.6968 H   0  0  0  0  0  0  0  0  0  0  0  0
  -12.5214  -27.2287  -37.3824 H   0  0  0  0  0  0  0  0  0  0  0  0
  -16.2108  -22.7710  -39.8726 H   0  0  0  0  0  0  0  0  0  0  0  0
  -10.7505  -28.5520  -36.2917 H   0  0  0  0  0  0  0  0  0  0  0  0
  -18.5981  -22.5543  -40.4053 H   0  0  0  0  0  0  0  0  0  0  0  0
  -11.4403  -23.8089  -34.9989 H   0  0  0  0  0  0  0  0  0  0  0  0
  -17.1904  -24.7609  -36.1863 H   0  0  0  0  0  0  0  0  0  0  0  0
   -9.8397  -23.9777  -33.3467 H   0  0  0  0  0  0  0  0  0  0  0  0
   -9.3802  -25.5791  -32.7176 H   0  0  0  0  0  0  0  0  0  0  0  0
   -8.4048  -24.8239  -33.9769 H   0  0  0  0  0  0  0  0  0  0  0  0
   -7.3404  -33.9721  -36.7656 H   0  0  0  0  0  0  0  0  0  0  0  0
   -8.4358  -35.3309  -36.4254 H   0  0  0  0  0  0  0  0  0  0  0  0
   -9.0395  -33.6598  -36.4574 H   0  0  0  0  0  0  0  0  0  0  0  0
   -7.5130  -36.2614  -34.3420 H   0  0  0  0  0  0  0  0  0  0  0  0
   -6.8348  -35.2171  -33.1056 H   0  0  0  0  0  0  0  0  0  0  0  0
   -6.0523  -35.3133  -34.6987 H   0  0  0  0  0  0  0  0  0  0  0  0
   -9.5766  -35.0837  -33.6540 H   0  0  0  0  0  0  0  0  0  0  0  0
   -9.0417  -33.5629  -32.9066 H   0  0  0  0  0  0  0  0  0  0  0  0
   -9.9745  -33.5558  -34.4206 H   0  0  0  0  0  0  0  0  0  0  0  0
   -8.7244  -28.6941  -36.1796 H   0  0  0  0  0  0  0  0  0  0  0  0
   -9.5322  -29.6373  -34.9168 H   0  0  0  0  0  0  0  0  0  0  0  0
  -12.7877  -23.8023  -37.3094 H   0  0  0  0  0  0  0  0  0  0  0  0
  -14.6175  -23.0932  -37.9476 H   0  0  0  0  0  0  0  0  0  0  0  0
  1  2  2  0  0  0  0
  1  3  1  0  0  0  0
  2  4  1  0  0  0  0
  3 12  2  0  0  0  0
  4 13  2  0  0  0  0
  5  7  2  0  0  0  0
  5 14  1  0  0  0  0
  6  8  1  0  0  0  0
  6 15  2  0  0  0  0
  7 16  1  0  0  0  0
  8 17  2  0  0  0  0
  9 11  1  0  0  0  0
  9 14  2  0  0  0  0
 10 15  1  0  0  0  0
 10 18  2  0  0  0  0
 11 16  2  0  0  0  0
 11 22  1  0  0  0  0
 12 13  1  0  0  0  0
 12 28  1  0  0  0  0
 13 29  1  0  0  0  0
 14 30  1  0  0  0  0
 15 31  1  0  0  0  0
 16 33  1  0  0  0  0
 17 18  1  0  0  0  0
 17 36  1  0  0  0  0
 18 37  1  0  0  0  0
 19 26  1  0  0  0  0
 19 28  2  0  0  0  0
 19 29  1  0  0  0  0
 20 29  1  0  0  0  0
 20 32  2  0  0  0  0
 20 34  1  0  0  0  0
 21 30  1  0  0  0  0
 21 31  1  0  0  0  0
 21 35  2  0  0  0  0
 23 27  1  0  0  0  0
 24 27  1  0  0  0  0
 25 27  1  0  0  0  0
 26 33  1  0  0  0  0
 27 34  1  0  0  0  0
  1 38  1  0  0  0  0
  2 39  1  0  0  0  0
  3 40  1  0  0  0  0
  4 41  1  0  0  0  0
  5 42  1  0  0  0  0
  6 43  1  0  0  0  0
  7 44  1  0  0  0  0
  8 45  1  0  0  0  0
  9 46  1  0  0  0  0
 10 47  1  0  0  0  0
 22 48  1  0  0  0  0
 22 49  1  0  0  0  0
 22 50  1  0  0  0  0
 23 51  1  0  0  0  0
 23 52  1  0  0  0  0
 23 53  1  0  0  0  0
 24 54  1  0  0  0  0
 24 55  1  0  0  0  0
 24 56  1  0  0  0  0
 25 57  1  0  0  0  0
 25 58  1  0  0  0  0
 25 59  1  0  0  0  0
 26 60  1  0  0  0  0
 26 61  1  0  0  0  0
 30 62  1  0  0  0  0
 31 63  1  0  0  0  0
M  END
> <Clean Energy>
84.5744

> <SourceTag>
Livi_174a

> <Activity_FLAP>
100

> <Activity_sEH>
0.7

> <Gold.Version>
5.2

> <Gold.Id.Protein>
6HGV|6HGV_protein|mol2

> <Gold.Goldscore.Fitness>
84.4447

> <Gold.Goldscore.Internal.Vdw>
-18.4334

> <Gold.Goldscore.Internal.Torsion>
-10.1929

> <Gold.Goldscore.External.Vdw>
66.9763

> <Gold.Goldscore.Internal.HBond>
0.0000

> <Gold.Goldscore.External.HBond>
0.0776

> <Gold.Goldscore.Internal.Correction>
-20.9009

> <Gold.Goldscore.Hbonds>
donor molecule, donor type, donor heavy atom, donor atom, acceptor molecule, acceptor atom, score
      P1  H  1247  3847       L1    35  0.01
      L1  H    30    62       P1   854  0.01

> <Gold.Goldscore.Internal.Vdw.Weighted>
-18.4334

> <Gold.Goldscore.Internal.Torsion.Weighted>
-10.1929

> <Gold.Goldscore.External.Vdw.Weighted>
92.0924

> <Gold.Goldscore.Internal.HBond.Weighted>
0.0000

> <Gold.Goldscore.External.HBond.Weighted>
0.0776

> <Gold.Goldscore.Internal.Correction.Weighted>
-20.9009

> <Gold.Protein.RotatedTorsions>
[ 3781 1176 1175 1172 ] final    4.06 input   60.00 | X-H torsion
[ 3847 1247 1246 1244 ] final -121.30 input   60.00 | X-H torsion
[ 4507 1931 1930 1928 ] final  -49.92 input   60.00 | X-H torsion
[ 3677 1070 1069 1066 ] final  -97.33 input   60.00 | X-H torsion
[ 3525  925  924  922 ] final  -17.65 input   59.99 | X-H torsion
[ 4531 1957 1955 1953 ] final   25.29 input   60.00 | X-H torsion

> <Gold.Protein.ActiveResidues>
 PHE267  PRO268  MET310  ASP335  TRP336  MET339  TYR343  THR360  PRO361  ILE363 
 PRO371  SER374  ILE375  ASN378  PHE381  TYR383  GLN384  PHE387  LEU408  LEU417 
 MET419  LEU428  TYR466  MET469  ASN472  ASP496  VAL498  LEU499  MET503  HIS524 
 TRP525 

> <Gold.Protein.RotatedAtoms>
   -3.7227  -29.5146  -30.2191 H   0  0  0  0  0  0  0  0  0  0  0  0  # atno 3525 bound_to 925 
  -11.7740  -23.7708  -31.4071 H   0  0  0  0  0  0  0  0  0  0  0  0  # atno 3677 bound_to 1070
  -10.8137  -37.2677  -33.6126 H   0  0  0  0  0  0  0  0  0  0  0  0  # atno 3781 bound_to 1176
  -15.5243  -27.2275  -37.6979 H   0  0  0  0  0  0  0  0  0  0  0  0  # atno 3847 bound_to 1247
  -13.6488  -25.2969  -39.7733 H   0  0  0  0  0  0  0  0  0  0  0  0  # atno 4507 bound_to 1931
   -3.0576  -32.8567  -36.6570 H   0  0  0  0  0  0  0  0  0  0  0  0  # atno 4531 bound_to 1957
   -9.5060  -36.3191  -33.8079 LP  0  0  0  0  0  0  0  0  0  0  0  0  # atno 5205 bound_to 1176
   -9.7856  -37.0436  -32.3714 LP  0  0  0  0  0  0  0  0  0  0  0  0  # atno 5206 bound_to 1176
  -14.3103  -28.3094  -37.7578 LP  0  0  0  0  0  0  0  0  0  0  0  0  # atno 5215 bound_to 1247
  -15.7274  -28.7062  -37.0498 LP  0  0  0  0  0  0  0  0  0  0  0  0  # atno 5216 bound_to 1247
  -12.9802  -23.9075  -40.2934 LP  0  0  0  0  0  0  0  0  0  0  0  0  # atno 5217 bound_to 1931
  -12.5616  -24.5247  -38.8406 LP  0  0  0  0  0  0  0  0  0  0  0  0  # atno 5218 bound_to 1931
  -11.3058  -22.3277  -30.8185 LP  0  0  0  0  0  0  0  0  0  0  0  0  # atno 5224 bound_to 1070
  -12.7755  -22.9297  -30.4388 LP  0  0  0  0  0  0  0  0  0  0  0  0  # atno 5225 bound_to 1070

$$$$
MSC-065|Lisa_paper2_min|sdf|12|dock1
  -GOLD-  10182017133D 1   1.00000     0.00000

 63 66  0  0  0  0  0  0  0  0  1 V2000
   -4.0335  -31.9760  -33.7271 C   0  0  0  0  0  0  0  0  0  0  0  0
   -4.8489  -32.2577  -32.6330 C   0  0  0  0  0  0  0  0  0  0  0  0
   -4.5052  -31.1963  -34.7872 C   0  0  0  0  0  0  0  0  0  0  0  0
   -6.1590  -31.7712  -32.5612 C   0  0  0  0  0  0  0  0  0  0  0  0
  -11.6952  -26.4656  -37.1204 C   0  0  0  0  0  0  0  0  0  0  0  0
  -16.9440  -22.8456  -38.9959 C   0  0  0  0  0  0  0  0  0  0  0  0
  -10.6498  -27.2721  -36.6705 C   0  0  0  0  0  0  0  0  0  0  0  0
  -18.3068  -22.7387  -39.2728 C   0  0  0  0  0  0  0  0  0  0  0  0
  -11.1900  -24.8496  -35.3969 C   0  0  0  0  0  0  0  0  0  0  0  0
  -17.4491  -24.0999  -36.9938 C   0  0  0  0  0  0  0  0  0  0  0  0
  -10.1446  -25.6561  -34.9470 C   0  0  0  0  0  0  0  0  0  0  0  0
   -5.8196  -30.6996  -34.7313 C   0  0  0  0  0  0  0  0  0  0  0  0
   -6.6243  -30.9900  -33.6289 C   0  0  0  0  0  0  0  0  0  0  0  0
  -11.9653  -25.2543  -36.4836 C   0  0  0  0  0  0  0  0  0  0  0  0
  -16.5151  -23.5262  -37.8564 C   0  0  0  0  0  0  0  0  0  0  0  0
   -9.8746  -26.8674  -35.5839 C   0  0  0  0  0  0  0  0  0  0  0  0
  -19.2409  -23.3124  -38.4102 C   0  0  0  0  0  0  0  0  0  0  0  0
  -18.8120  -23.9930  -37.2707 C   0  0  0  0  0  0  0  0  0  0  0  0
   -7.6787  -29.7387  -35.1162 C   0  0  0  0  0  0  0  0  0  0  0  0
   -8.9766  -30.3477  -33.0844 C   0  0  0  0  0  0  0  0  0  0  0  0
  -14.3810  -24.6939  -37.0949 C   0  0  0  0  0  0  0  0  0  0  0  0
   -9.3249  -25.2074  -33.7825 C   0  0  0  0  0  0  0  0  0  0  0  0
  -10.7918  -32.3032  -32.2425 C   0  0  0  0  0  0  0  0  0  0  0  0
   -9.4823  -32.3781  -30.1003 C   0  0  0  0  0  0  0  0  0  0  0  0
  -10.6800  -30.2717  -30.7610 C   0  0  0  0  0  0  0  0  0  0  0  0
   -8.7301  -28.9420  -35.7896 C   0  0  0  0  0  0  0  0  0  0  0  0
   -9.9292  -31.5019  -31.2686 C   0  0  0  0  0  0  0  0  0  0  0  0
   -6.4902  -29.9254  -35.6393 N   0  0  0  0  0  0  0  0  0  0  0  0
   -7.8336  -30.3575  -33.8919 N   0  0  0  0  0  0  0  0  0  0  0  0
  -13.0109  -24.4478  -36.9338 N   0  0  0  0  0  0  0  0  0  0  0  0
  -15.1300  -23.6351  -37.5757 N   0  0  0  0  0  0  0  0  0  0  0  0
   -9.9876  -29.7539  -33.4212 O   0  0  0  0  0  0  0  0  0  0  0  0
   -8.8527  -27.6708  -35.1557 O   0  0  0  0  0  0  0  0  0  0  0  0
   -8.7522  -31.0661  -31.9553 O   0  0  0  0  0  0  0  0  0  0  0  0
  -14.9684  -26.1794  -36.5580 S   0  0  0  0  0  0  0  0  0  0  0  0
  -20.9149  -23.1430  -38.8065 Cl  0  0  0  0  0  0  0  0  0  0  0  0
  -19.9207  -24.7229  -36.1630 Cl  0  0  0  0  0  0  0  0  0  0  0  0
   -3.0198  -32.3660  -33.7583 H   0  0  0  0  0  0  0  0  0  0  0  0
   -4.4616  -32.8667  -31.8199 H   0  0  0  0  0  0  0  0  0  0  0  0
   -3.8643  -30.9813  -35.6367 H   0  0  0  0  0  0  0  0  0  0  0  0
   -6.7728  -32.0048  -31.6993 H   0  0  0  0  0  0  0  0  0  0  0  0
  -12.2928  -26.7911  -37.9681 H   0  0  0  0  0  0  0  0  0  0  0  0
  -16.2244  -22.3962  -39.6755 H   0  0  0  0  0  0  0  0  0  0  0  0
  -10.4447  -28.2145  -37.1712 H   0  0  0  0  0  0  0  0  0  0  0  0
  -18.6230  -22.2060  -40.1662 H   0  0  0  0  0  0  0  0  0  0  0  0
  -11.3994  -23.9052  -34.8993 H   0  0  0  0  0  0  0  0  0  0  0  0
  -17.1085  -24.6285  -36.1057 H   0  0  0  0  0  0  0  0  0  0  0  0
   -9.2078  -26.0255  -33.0622 H   0  0  0  0  0  0  0  0  0  0  0  0
   -8.3284  -24.8781  -34.1022 H   0  0  0  0  0  0  0  0  0  0  0  0
   -9.7934  -24.3566  -33.2720 H   0  0  0  0  0  0  0  0  0  0  0  0
  -10.2010  -33.0839  -32.7347 H   0  0  0  0  0  0  0  0  0  0  0  0
  -11.6394  -32.7759  -31.7358 H   0  0  0  0  0  0  0  0  0  0  0  0
  -11.1804  -31.6603  -33.0407 H   0  0  0  0  0  0  0  0  0  0  0  0
   -8.9406  -31.7863  -29.3536 H   0  0  0  0  0  0  0  0  0  0  0  0
   -8.7893  -33.1567  -30.4392 H   0  0  0  0  0  0  0  0  0  0  0  0
  -10.3331  -32.8612  -29.6090 H   0  0  0  0  0  0  0  0  0  0  0  0
   -9.9847  -29.5321  -30.3476 H   0  0  0  0  0  0  0  0  0  0  0  0
  -11.2580  -29.7943  -31.5590 H   0  0  0  0  0  0  0  0  0  0  0  0
  -11.3645  -30.5407  -29.9483 H   0  0  0  0  0  0  0  0  0  0  0  0
   -8.5000  -28.7741  -36.8546 H   0  0  0  0  0  0  0  0  0  0  0  0
   -9.7104  -29.4446  -35.7491 H   0  0  0  0  0  0  0  0  0  0  0  0
  -12.7539  -23.4812  -37.1681 H   0  0  0  0  0  0  0  0  0  0  0  0
  -14.6240  -22.7563  -37.6536 H   0  0  0  0  0  0  0  0  0  0  0  0
  1  2  2  0  0  0  0
  1  3  1  0  0  0  0
  2  4  1  0  0  0  0
  3 12  2  0  0  0  0
  4 13  2  0  0  0  0
  5  7  2  0  0  0  0
  5 14  1  0  0  0  0
  6  8  1  0  0  0  0
  6 15  2  0  0  0  0
  7 16  1  0  0  0  0
  8 17  2  0  0  0  0
  9 11  1  0  0  0  0
  9 14  2  0  0  0  0
 10 15  1  0  0  0  0
 10 18  2  0  0  0  0
 11 16  2  0  0  0  0
 11 22  1  0  0  0  0
 12 13  1  0  0  0  0
 12 28  1  0  0  0  0
 13 29  1  0  0  0  0
 14 30  1  0  0  0  0
 15 31  1  0  0  0  0
 16 33  1  0  0  0  0
 17 18  1  0  0  0  0
 17 36  1  0  0  0  0
 18 37  1  0  0  0  0
 19 26  1  0  0  0  0
 19 28  2  0  0  0  0
 19 29  1  0  0  0  0
 20 29  1  0  0  0  0
 20 32  2  0  0  0  0
 20 34  1  0  0  0  0
 21 30  1  0  0  0  0
 21 31  1  0  0  0  0
 21 35  2  0  0  0  0
 23 27  1  0  0  0  0
 24 27  1  0  0  0  0
 25 27  1  0  0  0  0
 26 33  1  0  0  0  0
 27 34  1  0  0  0  0
  1 38  1  0  0  0  0
  2 39  1  0  0  0  0
  3 40  1  0  0  0  0
  4 41  1  0  0  0  0
  5 42  1  0  0  0  0
  6 43  1  0  0  0  0
  7 44  1  0  0  0  0
  8 45  1  0  0  0  0
  9 46  1  0  0  0  0
 10 47  1  0  0  0  0
 22 48  1  0  0  0  0
 22 49  1  0  0  0  0
 22 50  1  0  0  0  0
 23 51  1  0  0  0  0
 23 52  1  0  0  0  0
 23 53  1  0  0  0  0
 24 54  1  0  0  0  0
 24 55  1  0  0  0  0
 24 56  1  0  0  0  0
 25 57  1  0  0  0  0
 25 58  1  0  0  0  0
 25 59  1  0  0  0  0
 26 60  1  0  0  0  0
 26 61  1  0  0  0  0
 30 62  1  0  0  0  0
 31 63  1  0  0  0  0
M  END
> <Clean Energy>
84.5744

> <SourceTag>
Livi_174a

> <Activity_FLAP>
100

> <Activity_sEH>
0.7

> <Gold.Version>
5.2

> <Gold.Id.Protein>
6HGV|6HGV_protein|mol2

> <Gold.Goldscore.Fitness>
80.7570

> <Gold.Goldscore.Internal.Vdw>
-15.0910

> <Gold.Goldscore.Internal.Torsion>
-10.8750

> <Gold.Goldscore.External.Vdw>
60.4057

> <Gold.Goldscore.Internal.HBond>
0.0000

> <Gold.Goldscore.External.HBond>
0.7805

> <Gold.Goldscore.Internal.Correction>
-22.8846

> <Gold.Goldscore.Hbonds>
donor molecule, donor type, donor heavy atom, donor atom, acceptor molecule, acceptor atom, score
      P1  H  1247  3847       L1    35  0.05
      P1  H  1994  4571       L1    28  0.02
      L1  H    30    62       P1   854  0.12

> <Gold.Goldscore.Internal.Vdw.Weighted>
-15.0910

> <Gold.Goldscore.Internal.Torsion.Weighted>
-10.8750

> <Gold.Goldscore.External.Vdw.Weighted>
83.0579

> <Gold.Goldscore.Internal.HBond.Weighted>
0.0000

> <Gold.Goldscore.External.HBond.Weighted>
0.7805

> <Gold.Goldscore.Internal.Correction.Weighted>
-22.8846

> <Gold.Protein.RotatedTorsions>
[ 3781 1176 1175 1172 ] final -159.65 input   60.00 | X-H torsion
[ 3847 1247 1246 1244 ] final -128.65 input   60.00 | X-H torsion
[ 4507 1931 1930 1928 ] final  -52.60 input   60.00 | X-H torsion
[ 3677 1070 1069 1066 ] final -117.39 input   60.00 | X-H torsion
[ 3525  925  924  922 ] final   45.80 input   59.99 | X-H torsion
[ 4531 1957 1955 1953 ] final   63.46 input   60.00 | X-H torsion

> <Gold.Protein.ActiveResidues>
 PHE267  PRO268  MET310  ASP335  TRP336  MET339  TYR343  THR360  PRO361  ILE363 
 PRO371  SER374  ILE375  ASN378  PHE381  TYR383  GLN384  PHE387  LEU408  LEU417 
 MET419  LEU428  TYR466  MET469  ASN472  ASP496  VAL498  LEU499  MET503  HIS524 
 TRP525 

> <Gold.Protein.RotatedAtoms>
   -3.0175  -29.7635  -30.8596 H   0  0  0  0  0  0  0  0  0  0  0  0  # atno 3525 bound_to 925 
  -11.4958  -23.6064  -31.4503 H   0  0  0  0  0  0  0  0  0  0  0  0  # atno 3677 bound_to 1070
   -9.2447  -36.3894  -33.1628 H   0  0  0  0  0  0  0  0  0  0  0  0  # atno 3781 bound_to 1176
  -15.4176  -27.2054  -37.7482 H   0  0  0  0  0  0  0  0  0  0  0  0  # atno 3847 bound_to 1247
  -13.6594  -25.2795  -39.8121 H   0  0  0  0  0  0  0  0  0  0  0  0  # atno 4507 bound_to 1931
   -3.0382  -33.4686  -36.6713 H   0  0  0  0  0  0  0  0  0  0  0  0  # atno 4531 bound_to 1957
  -10.3797  -37.3762  -32.5417 LP  0  0  0  0  0  0  0  0  0  0  0  0  # atno 5205 bound_to 1176
  -10.4919  -36.8709  -34.0905 LP  0  0  0  0  0  0  0  0  0  0  0  0  # atno 5206 bound_to 1176
  -14.3324  -28.4173  -37.7078 LP  0  0  0  0  0  0  0  0  0  0  0  0  # atno 5215 bound_to 1247
  -15.8127  -28.6207  -37.0490 LP  0  0  0  0  0  0  0  0  0  0  0  0  # atno 5216 bound_to 1247
  -12.9508  -23.8873  -40.2675 LP  0  0  0  0  0  0  0  0  0  0  0  0  # atno 5217 bound_to 1931
  -12.5804  -24.5624  -38.8274 LP  0  0  0  0  0  0  0  0  0  0  0  0  # atno 5218 bound_to 1931
  -11.5433  -22.2018  -30.6300 LP  0  0  0  0  0  0  0  0  0  0  0  0  # atno 5224 bound_to 1070
  -12.8182  -23.2211  -30.5837 LP  0  0  0  0  0  0  0  0  0  0  0  0  # atno 5225 bound_to 1070

$$$$
MSC-065|Lisa_paper2_min|sdf|12|dock9
  -GOLD-  10182017153D 1   1.00000     0.00000

 63 66  0  0  0  0  0  0  0  0  1 V2000
   -4.1443  -32.2782  -33.8959 C   0  0  0  0  0  0  0  0  0  0  0  0
   -4.9496  -32.5265  -32.7863 C   0  0  0  0  0  0  0  0  0  0  0  0
   -4.6117  -31.4973  -34.9569 C   0  0  0  0  0  0  0  0  0  0  0  0
   -6.2449  -32.0044  -32.6995 C   0  0  0  0  0  0  0  0  0  0  0  0
  -11.7192  -26.5599  -37.1569 C   0  0  0  0  0  0  0  0  0  0  0  0
  -17.0348  -22.8621  -38.6533 C   0  0  0  0  0  0  0  0  0  0  0  0
  -10.6518  -27.3796  -36.7904 C   0  0  0  0  0  0  0  0  0  0  0  0
  -18.4100  -22.7488  -38.8572 C   0  0  0  0  0  0  0  0  0  0  0  0
  -11.0804  -24.9677  -35.4558 C   0  0  0  0  0  0  0  0  0  0  0  0
  -17.4371  -24.2022  -36.6838 C   0  0  0  0  0  0  0  0  0  0  0  0
  -10.0130  -25.7874  -35.0893 C   0  0  0  0  0  0  0  0  0  0  0  0
   -5.9114  -30.9650  -34.8861 C   0  0  0  0  0  0  0  0  0  0  0  0
   -6.7061  -31.2222  -33.7683 C   0  0  0  0  0  0  0  0  0  0  0  0
  -11.9335  -25.3539  -36.4896 C   0  0  0  0  0  0  0  0  0  0  0  0
  -16.5483  -23.5889  -37.5667 C   0  0  0  0  0  0  0  0  0  0  0  0
   -9.7988  -26.9934  -35.7566 C   0  0  0  0  0  0  0  0  0  0  0  0
  -19.2988  -23.3623  -37.9743 C   0  0  0  0  0  0  0  0  0  0  0  0
  -18.8123  -24.0890  -36.8876 C   0  0  0  0  0  0  0  0  0  0  0  0
   -7.7501  -29.9588  -35.2527 C   0  0  0  0  0  0  0  0  0  0  0  0
   -9.0315  -30.5115  -33.1945 C   0  0  0  0  0  0  0  0  0  0  0  0
  -14.3775  -24.7780  -36.9574 C   0  0  0  0  0  0  0  0  0  0  0  0
   -9.1097  -25.3583  -33.9805 C   0  0  0  0  0  0  0  0  0  0  0  0
  -10.4299  -30.2044  -30.6104 C   0  0  0  0  0  0  0  0  0  0  0  0
  -11.0507  -32.0245  -32.2264 C   0  0  0  0  0  0  0  0  0  0  0  0
   -9.6182  -32.5568  -30.2332 C   0  0  0  0  0  0  0  0  0  0  0  0
   -8.7904  -29.1412  -35.9183 C   0  0  0  0  0  0  0  0  0  0  0  0
   -9.9738  -31.5006  -31.2786 C   0  0  0  0  0  0  0  0  0  0  0  0
   -6.5753  -30.1826  -35.7920 N   0  0  0  0  0  0  0  0  0  0  0  0
   -7.9021  -30.5604  -34.0194 N   0  0  0  0  0  0  0  0  0  0  0  0
  -13.0013  -24.5342  -36.8564 N   0  0  0  0  0  0  0  0  0  0  0  0
  -15.1507  -23.7042  -37.3603 N   0  0  0  0  0  0  0  0  0  0  0  0
  -10.0316  -29.8944  -33.5221 O   0  0  0  0  0  0  0  0  0  0  0  0
   -8.7563  -27.8096  -35.4101 O   0  0  0  0  0  0  0  0  0  0  0  0
   -8.8086  -31.2238  -32.0612 O   0  0  0  0  0  0  0  0  0  0  0  0
  -14.9358  -26.2840  -36.4470 S   0  0  0  0  0  0  0  0  0  0  0  0
  -20.9908  -23.1827  -38.2791 Cl  0  0  0  0  0  0  0  0  0  0  0  0
  -19.8630  -24.8695  -35.7582 Cl  0  0  0  0  0  0  0  0  0  0  0  0
   -3.1419  -32.6956  -33.9384 H   0  0  0  0  0  0  0  0  0  0  0  0
   -4.5659  -33.1371  -31.9727 H   0  0  0  0  0  0  0  0  0  0  0  0
   -3.9788  -31.3084  -35.8185 H   0  0  0  0  0  0  0  0  0  0  0  0
   -6.8511  -32.2124  -31.8257 H   0  0  0  0  0  0  0  0  0  0  0  0
  -12.3777  -26.8711  -37.9640 H   0  0  0  0  0  0  0  0  0  0  0  0
  -16.3509  -22.3815  -39.3482 H   0  0  0  0  0  0  0  0  0  0  0  0
  -10.4904  -28.3178  -37.3144 H   0  0  0  0  0  0  0  0  0  0  0  0
  -18.7713  -22.1799  -39.7103 H   0  0  0  0  0  0  0  0  0  0  0  0
  -11.2463  -24.0274  -34.9345 H   0  0  0  0  0  0  0  0  0  0  0  0
  -17.0516  -24.7667  -35.8371 H   0  0  0  0  0  0  0  0  0  0  0  0
   -9.5941  -24.5847  -33.3733 H   0  0  0  0  0  0  0  0  0  0  0  0
   -8.8519  -26.2029  -33.3294 H   0  0  0  0  0  0  0  0  0  0  0  0
   -8.1660  -24.9566  -34.3705 H   0  0  0  0  0  0  0  0  0  0  0  0
  -10.6433  -29.4339  -31.3598 H   0  0  0  0  0  0  0  0  0  0  0  0
  -11.3283  -30.3578  -30.0036 H   0  0  0  0  0  0  0  0  0  0  0  0
   -9.6419  -29.7986  -29.9656 H   0  0  0  0  0  0  0  0  0  0  0  0
  -11.6229  -31.1975  -32.6620 H   0  0  0  0  0  0  0  0  0  0  0  0
  -11.7727  -32.6501  -31.6891 H   0  0  0  0  0  0  0  0  0  0  0  0
  -10.6194  -32.6148  -33.0413 H   0  0  0  0  0  0  0  0  0  0  0  0
  -10.5002  -32.8394  -29.6471 H   0  0  0  0  0  0  0  0  0  0  0  0
   -9.2069  -33.4598  -30.6960 H   0  0  0  0  0  0  0  0  0  0  0  0
   -8.8844  -32.1664  -29.5188 H   0  0  0  0  0  0  0  0  0  0  0  0
   -8.6420  -29.0964  -37.0098 H   0  0  0  0  0  0  0  0  0  0  0  0
   -9.7999  -29.5503  -35.7488 H   0  0  0  0  0  0  0  0  0  0  0  0
  -12.7573  -23.5589  -37.0674 H   0  0  0  0  0  0  0  0  0  0  0  0
  -14.6502  -22.8218  -37.4309 H   0  0  0  0  0  0  0  0  0  0  0  0
  1  2  2  0  0  0  0
  1  3  1  0  0  0  0
  2  4  1  0  0  0  0
  3 12  2  0  0  0  0
  4 13  2  0  0  0  0
  5  7  2  0  0  0  0
  5 14  1  0  0  0  0
  6  8  1  0  0  0  0
  6 15  2  0  0  0  0
  7 16  1  0  0  0  0
  8 17  2  0  0  0  0
  9 11  1  0  0  0  0
  9 14  2  0  0  0  0
 10 15  1  0  0  0  0
 10 18  2  0  0  0  0
 11 16  2  0  0  0  0
 11 22  1  0  0  0  0
 12 13  1  0  0  0  0
 12 28  1  0  0  0  0
 13 29  1  0  0  0  0
 14 30  1  0  0  0  0
 15 31  1  0  0  0  0
 16 33  1  0  0  0  0
 17 18  1  0  0  0  0
 17 36  1  0  0  0  0
 18 37  1  0  0  0  0
 19 26  1  0  0  0  0
 19 28  2  0  0  0  0
 19 29  1  0  0  0  0
 20 29  1  0  0  0  0
 20 32  2  0  0  0  0
 20 34  1  0  0  0  0
 21 30  1  0  0  0  0
 21 31  1  0  0  0  0
 21 35  2  0  0  0  0
 23 27  1  0  0  0  0
 24 27  1  0  0  0  0
 25 27  1  0  0  0  0
 26 33  1  0  0  0  0
 27 34  1  0  0  0  0
  1 38  1  0  0  0  0
  2 39  1  0  0  0  0
  3 40  1  0  0  0  0
  4 41  1  0  0  0  0
  5 42  1  0  0  0  0
  6 43  1  0  0  0  0
  7 44  1  0  0  0  0
  8 45  1  0  0  0  0
  9 46  1  0  0  0  0
 10 47  1  0  0  0  0
 22 48  1  0  0  0  0
 22 49  1  0  0  0  0
 22 50  1  0  0  0  0
 23 51  1  0  0  0  0
 23 52  1  0  0  0  0
 23 53  1  0  0  0  0
 24 54  1  0  0  0  0
 24 55  1  0  0  0  0
 24 56  1  0  0  0  0
 25 57  1  0  0  0  0
 25 58  1  0  0  0  0
 25 59  1  0  0  0  0
 26 60  1  0  0  0  0
 26 61  1  0  0  0  0
 30 62  1  0  0  0  0
 31 63  1  0  0  0  0
M  END
> <Clean Energy>
84.5744

> <SourceTag>
Livi_174a

> <Activity_FLAP>
100

> <Activity_sEH>
0.7

> <Gold.Version>
5.2

> <Gold.Id.Protein>
6HGV|6HGV_protein|mol2

> <Gold.Goldscore.Fitness>
76.4750

> <Gold.Goldscore.Internal.Vdw>
-15.2316

> <Gold.Goldscore.Internal.Torsion>
-10.8785

> <Gold.Goldscore.External.Vdw>
58.5678

> <Gold.Goldscore.Internal.HBond>
0.0000

> <Gold.Goldscore.External.HBond>
1.1534

> <Gold.Goldscore.Internal.Correction>
-20.9009

> <Gold.Goldscore.Hbonds>
donor molecule, donor type, donor heavy atom, donor atom, acceptor molecule, acceptor atom, score
      P1  H  1247  3847       L1    35  0.02
      L1  H    30    62       P1   854  0.17
      L1  H    31    63       P1   854  0.02

> <Gold.Goldscore.Internal.Vdw.Weighted>
-15.2316

> <Gold.Goldscore.Internal.Torsion.Weighted>
-10.8785

> <Gold.Goldscore.External.Vdw.Weighted>
80.5307

> <Gold.Goldscore.Internal.HBond.Weighted>
0.0000

> <Gold.Goldscore.External.HBond.Weighted>
1.1534

> <Gold.Goldscore.Internal.Correction.Weighted>
-20.9009

> <Gold.Protein.RotatedTorsions>
[ 3781 1176 1175 1172 ] final   -2.09 input   60.00 | X-H torsion
[ 3847 1247 1246 1244 ] final -125.40 input   60.00 | X-H torsion
[ 4507 1931 1930 1928 ] final  -52.13 input   60.00 | X-H torsion
[ 3677 1070 1069 1066 ] final -124.20 input   60.00 | X-H torsion
[ 3525  925  924  922 ] final   43.38 input   59.99 | X-H torsion
[ 4531 1957 1955 1953 ] final   75.35 input   60.00 | X-H torsion

> <Gold.Protein.ActiveResidues>
 PHE267  PRO268  MET310  ASP335  TRP336  MET339  TYR343  THR360  PRO361  ILE363 
 PRO371  SER374  ILE375  ASN378  PHE381  TYR383  GLN384  PHE387  LEU408  LEU417 
 MET419  LEU428  TYR466  MET469  ASN472  ASP496  VAL498  LEU499  MET503  HIS524 
 TRP525 

> <Gold.Protein.RotatedAtoms>
   -3.0533  -29.7485  -30.8526 H   0  0  0  0  0  0  0  0  0  0  0  0  # atno 3525 bound_to 925 
  -11.4123  -23.5329  -31.4495 H   0  0  0  0  0  0  0  0  0  0  0  0  # atno 3677 bound_to 1070
  -10.7920  -37.2209  -33.6989 H   0  0  0  0  0  0  0  0  0  0  0  0  # atno 3781 bound_to 1176
  -15.4654  -27.2134  -37.7264 H   0  0  0  0  0  0  0  0  0  0  0  0  # atno 3847 bound_to 1247
  -13.6577  -25.2827  -39.8053 H   0  0  0  0  0  0  0  0  0  0  0  0  # atno 4507 bound_to 1931
   -2.9521  -33.6412  -36.6907 H   0  0  0  0  0  0  0  0  0  0  0  0  # atno 4531 bound_to 1957
   -9.4450  -36.3084  -33.7278 LP  0  0  0  0  0  0  0  0  0  0  0  0  # atno 5205 bound_to 1176
   -9.8684  -37.1014  -32.3645 LP  0  0  0  0  0  0  0  0  0  0  0  0  # atno 5206 bound_to 1176
  -14.3209  -28.3702  -37.7304 LP  0  0  0  0  0  0  0  0  0  0  0  0  # atno 5215 bound_to 1247
  -15.7762  -28.6597  -37.0485 LP  0  0  0  0  0  0  0  0  0  0  0  0  # atno 5216 bound_to 1247
  -12.9559  -23.8907  -40.2721 LP  0  0  0  0  0  0  0  0  0  0  0  0  # atno 5217 bound_to 1931
  -12.5771  -24.5558  -38.8296 LP  0  0  0  0  0  0  0  0  0  0  0  0  # atno 5218 bound_to 1931
  -11.6369  -22.1809  -30.5721 LP  0  0  0  0  0  0  0  0  0  0  0  0  # atno 5224 bound_to 1070
  -12.8087  -23.3160  -30.6425 LP  0  0  0  0  0  0  0  0  0  0  0  0  # atno 5225 bound_to 1070

$$$$
MSC-067|Lisa_paper2_min|sdf|13|dock2
  -GOLD-  10182017163D 1   1.00000     0.00000

 48 51  0  0  0  0  0  0  0  0  1 V2000
   -2.4856  -29.1116  -32.6698 C   0  0  0  0  0  0  0  0  0  0  0  0
   -2.8162  -30.4480  -32.4338 C   0  0  0  0  0  0  0  0  0  0  0  0
   -3.3773  -28.2527  -33.3246 C   0  0  0  0  0  0  0  0  0  0  0  0
   -4.0463  -30.9744  -32.8416 C   0  0  0  0  0  0  0  0  0  0  0  0
  -11.3746  -27.5195  -36.8802 C   0  0  0  0  0  0  0  0  0  0  0  0
  -16.8327  -23.3495  -38.5270 C   0  0  0  0  0  0  0  0  0  0  0  0
  -10.3047  -28.0939  -36.1941 C   0  0  0  0  0  0  0  0  0  0  0  0
  -18.1550  -22.9079  -38.4803 C   0  0  0  0  0  0  0  0  0  0  0  0
  -11.3333  -25.6360  -35.3677 C   0  0  0  0  0  0  0  0  0  0  0  0
  -17.3055  -24.9496  -36.7796 C   0  0  0  0  0  0  0  0  0  0  0  0
  -10.2633  -26.2104  -34.6815 C   0  0  0  0  0  0  0  0  0  0  0  0
   -4.6176  -28.7648  -33.7416 C   0  0  0  0  0  0  0  0  0  0  0  0
   -4.9185  -30.1009  -33.4919 C   0  0  0  0  0  0  0  0  0  0  0  0
  -11.8889  -26.2904  -36.4670 C   0  0  0  0  0  0  0  0  0  0  0  0
  -16.4080  -24.3704  -37.6766 C   0  0  0  0  0  0  0  0  0  0  0  0
   -9.7490  -27.4395  -35.0947 C   0  0  0  0  0  0  0  0  0  0  0  0
  -19.0525  -23.4871  -37.5833 C   0  0  0  0  0  0  0  0  0  0  0  0
  -18.6277  -24.5079  -36.7329 C   0  0  0  0  0  0  0  0  0  0  0  0
   -6.5727  -29.0739  -34.5427 C   0  0  0  0  0  0  0  0  0  0  0  0
  -14.2609  -25.3870  -36.7526 C   0  0  0  0  0  0  0  0  0  0  0  0
   -9.6807  -25.4960  -33.5070 C   0  0  0  0  0  0  0  0  0  0  0  0
   -7.8907  -28.9208  -35.1863 C   0  0  0  0  0  0  0  0  0  0  0  0
   -5.6569  -28.1430  -34.3949 N   0  0  0  0  0  0  0  0  0  0  0  0
   -6.1747  -30.2707  -34.0149 N   0  0  0  0  0  0  0  0  0  0  0  0
  -12.9591  -25.7161  -37.1536 N   0  0  0  0  0  0  0  0  0  0  0  0
  -15.0643  -24.8193  -37.7249 N   0  0  0  0  0  0  0  0  0  0  0  0
   -8.7003  -28.0169  -34.4336 O   0  0  0  0  0  0  0  0  0  0  0  0
  -14.6420  -25.5863  -35.1231 S   0  0  0  0  0  0  0  0  0  0  0  0
  -20.6762  -22.8941  -37.5713 Cl  0  0  0  0  0  0  0  0  0  0  0  0
  -19.6918  -25.2632  -35.5987 Cl  0  0  0  0  0  0  0  0  0  0  0  0
   -1.5219  -28.7315  -32.3403 H   0  0  0  0  0  0  0  0  0  0  0  0
   -2.1038  -31.0924  -31.9244 H   0  0  0  0  0  0  0  0  0  0  0  0
   -3.1110  -27.2157  -33.5022 H   0  0  0  0  0  0  0  0  0  0  0  0
   -4.3050  -32.0110  -32.6584 H   0  0  0  0  0  0  0  0  0  0  0  0
  -11.7998  -28.0385  -37.7355 H   0  0  0  0  0  0  0  0  0  0  0  0
  -16.1418  -22.8925  -39.2308 H   0  0  0  0  0  0  0  0  0  0  0  0
   -9.9088  -29.0516  -36.5213 H   0  0  0  0  0  0  0  0  0  0  0  0
  -18.4689  -22.1123  -39.1515 H   0  0  0  0  0  0  0  0  0  0  0  0
  -11.7332  -24.6774  -35.0443 H   0  0  0  0  0  0  0  0  0  0  0  0
  -16.9678  -25.7447  -36.1177 H   0  0  0  0  0  0  0  0  0  0  0  0
   -8.5875  -25.5786  -33.5157 H   0  0  0  0  0  0  0  0  0  0  0  0
   -9.9508  -24.4327  -33.5154 H   0  0  0  0  0  0  0  0  0  0  0  0
  -10.0551  -25.9127  -32.5636 H   0  0  0  0  0  0  0  0  0  0  0  0
   -7.8095  -28.5270  -36.2153 H   0  0  0  0  0  0  0  0  0  0  0  0
   -8.4297  -29.8823  -35.2587 H   0  0  0  0  0  0  0  0  0  0  0  0
   -6.7094  -31.1294  -34.0089 H   0  0  0  0  0  0  0  0  0  0  0  0
  -12.7681  -25.4515  -38.1277 H   0  0  0  0  0  0  0  0  0  0  0  0
  -14.5876  -24.5981  -38.5955 H   0  0  0  0  0  0  0  0  0  0  0  0
  1  2  2  0  0  0  0
  1  3  1  0  0  0  0
  2  4  1  0  0  0  0
  3 12  2  0  0  0  0
  4 13  2  0  0  0  0
  5  7  2  0  0  0  0
  5 14  1  0  0  0  0
  6  8  1  0  0  0  0
  6 15  2  0  0  0  0
  7 16  1  0  0  0  0
  8 17  2  0  0  0  0
  9 11  1  0  0  0  0
  9 14  2  0  0  0  0
 10 15  1  0  0  0  0
 10 18  2  0  0  0  0
 11 16  2  0  0  0  0
 11 21  1  0  0  0  0
 12 13  1  0  0  0  0
 12 23  1  0  0  0  0
 13 24  1  0  0  0  0
 14 25  1  0  0  0  0
 15 26  1  0  0  0  0
 16 27  1  0  0  0  0
 17 18  1  0  0  0  0
 17 29  1  0  0  0  0
 18 30  1  0  0  0  0
 19 22  1  0  0  0  0
 19 23  2  0  0  0  0
 19 24  1  0  0  0  0
 20 25  1  0  0  0  0
 20 26  1  0  0  0  0
 20 28  2  0  0  0  0
 22 27  1  0  0  0  0
  1 31  1  0  0  0  0
  2 32  1  0  0  0  0
  3 33  1  0  0  0  0
  4 34  1  0  0  0  0
  5 35  1  0  0  0  0
  6 36  1  0  0  0  0
  7 37  1  0  0  0  0
  8 38  1  0  0  0  0
  9 39  1  0  0  0  0
 10 40  1  0  0  0  0
 21 41  1  0  0  0  0
 21 42  1  0  0  0  0
 21 43  1  0  0  0  0
 22 44  1  0  0  0  0
 22 45  1  0  0  0  0
 24 46  1  0  0  0  0
 25 47  1  0  0  0  0
 26 48  1  0  0  0  0
M  END
> <Clean Energy>
84.5744

> <SourceTag>
Livi_174a

> <Activity_FLAP>
100

> <Activity_sEH>
0.7

> <Gold.Version>
5.2

> <Gold.Id.Protein>
6HGV|6HGV_protein|mol2

> <Gold.Goldscore.Fitness>
83.3340

> <Gold.Goldscore.Internal.Vdw>
-6.3364

> <Gold.Goldscore.Internal.Torsion>
-8.6353

> <Gold.Goldscore.External.Vdw>
61.1916

> <Gold.Goldscore.Internal.HBond>
0.0000

> <Gold.Goldscore.External.HBond>
2.6691

> <Gold.Goldscore.Internal.Correction>
-11.4982

> <Gold.Goldscore.Hbonds>
donor molecule, donor type, donor heavy atom, donor atom, acceptor molecule, acceptor atom, score
      L1  H    25    47       P1  1931  1.00
      L1  H    26    48       P1  1931  0.33

> <Gold.Goldscore.Internal.Vdw.Weighted>
-6.3364

> <Gold.Goldscore.Internal.Torsion.Weighted>
-8.6353

> <Gold.Goldscore.External.Vdw.Weighted>
84.1384

> <Gold.Goldscore.Internal.HBond.Weighted>
0.0000

> <Gold.Goldscore.External.HBond.Weighted>
2.6691

> <Gold.Goldscore.Internal.Correction.Weighted>
-11.4982

> <Gold.Protein.RotatedTorsions>
[ 3781 1176 1175 1172 ] final  -71.68 input   60.00 | X-H torsion
[ 3847 1247 1246 1244 ] final  129.12 input   60.00 | X-H torsion
[ 4507 1931 1930 1928 ] final -168.86 input   60.00 | X-H torsion
[ 3677 1070 1069 1066 ] final  -67.89 input   60.00 | X-H torsion
[ 3525  925  924  922 ] final  -61.48 input   59.99 | X-H torsion
[ 4531 1957 1955 1953 ] final  -10.19 input   60.00 | X-H torsion

> <Gold.Protein.ActiveResidues>
 PHE267  PRO268  MET310  ASP335  TRP336  MET339  TYR343  THR360  PRO361  ILE363 
 PRO371  SER374  ILE375  ASN378  PHE381  TYR383  GLN384  PHE387  LEU408  LEU417 
 MET419  LEU428  TYR466  MET469  ASN472  ASP496  VAL498  LEU499  MET503  HIS524 
 TRP525 

> <Gold.Protein.RotatedAtoms>
   -3.6970  -29.5893  -29.5249 H   0  0  0  0  0  0  0  0  0  0  0  0  # atno 3525 bound_to 925 
  -12.2111  -23.8424  -31.2331 H   0  0  0  0  0  0  0  0  0  0  0  0  # atno 3677 bound_to 1070
  -10.0722  -36.5721  -34.1490 H   0  0  0  0  0  0  0  0  0  0  0  0  # atno 3781 bound_to 1176
  -14.3108  -28.1509  -37.8210 H   0  0  0  0  0  0  0  0  0  0  0  0  # atno 3847 bound_to 1247
  -12.9906  -23.9217  -40.2995 H   0  0  0  0  0  0  0  0  0  0  0  0  # atno 4507 bound_to 1931
   -2.7362  -32.3882  -36.7100 H   0  0  0  0  0  0  0  0  0  0  0  0  # atno 4531 bound_to 1957
   -9.3274  -36.6138  -32.7028 LP  0  0  0  0  0  0  0  0  0  0  0  0  # atno 5205 bound_to 1176
  -10.7108  -37.4493  -32.9363 LP  0  0  0  0  0  0  0  0  0  0  0  0  # atno 5206 bound_to 1176
  -15.5916  -28.8095  -37.0636 LP  0  0  0  0  0  0  0  0  0  0  0  0  # atno 5215 bound_to 1247
  -15.6682  -27.2762  -37.6201 LP  0  0  0  0  0  0  0  0  0  0  0  0  # atno 5216 bound_to 1247
  -12.5545  -24.5099  -38.8463 LP  0  0  0  0  0  0  0  0  0  0  0  0  # atno 5217 bound_to 1931
  -13.6501  -25.3072  -39.7577 LP  0  0  0  0  0  0  0  0  0  0  0  0  # atno 5218 bound_to 1931
  -11.1049  -22.6559  -31.1041 LP  0  0  0  0  0  0  0  0  0  0  0  0  # atno 5224 bound_to 1070
  -12.5363  -22.5294  -30.3284 LP  0  0  0  0  0  0  0  0  0  0  0  0  # atno 5225 bound_to 1070

$$$$
MSC-067|Lisa_paper2_min|sdf|13|dock7
  -GOLD-  10182017173D 1   1.00000     0.00000

 48 51  0  0  0  0  0  0  0  0  1 V2000
   -2.6020  -29.2030  -32.6840 C   0  0  0  0  0  0  0  0  0  0  0  0
   -2.8140  -30.5830  -32.7208 C   0  0  0  0  0  0  0  0  0  0  0  0
   -3.5531  -28.3130  -33.1987 C   0  0  0  0  0  0  0  0  0  0  0  0
   -3.9807  -31.1238  -33.2714 C   0  0  0  0  0  0  0  0  0  0  0  0
  -11.3904  -27.5468  -37.0435 C   0  0  0  0  0  0  0  0  0  0  0  0
  -16.9068  -23.3759  -38.5344 C   0  0  0  0  0  0  0  0  0  0  0  0
  -10.3173  -28.1317  -36.3714 C   0  0  0  0  0  0  0  0  0  0  0  0
  -18.2201  -22.9106  -38.4675 C   0  0  0  0  0  0  0  0  0  0  0  0
  -11.4926  -25.8091  -35.3681 C   0  0  0  0  0  0  0  0  0  0  0  0
  -17.3785  -24.9604  -36.7726 C   0  0  0  0  0  0  0  0  0  0  0  0
  -10.4194  -26.3940  -34.6959 C   0  0  0  0  0  0  0  0  0  0  0  0
   -4.7310  -28.8388  -33.7559 C   0  0  0  0  0  0  0  0  0  0  0  0
   -4.9138  -30.2187  -33.7780 C   0  0  0  0  0  0  0  0  0  0  0  0
  -11.9780  -26.3854  -36.5419 C   0  0  0  0  0  0  0  0  0  0  0  0
  -16.4860  -24.4008  -37.6869 C   0  0  0  0  0  0  0  0  0  0  0  0
   -9.8318  -27.5554  -35.1975 C   0  0  0  0  0  0  0  0  0  0  0  0
  -19.1125  -23.4702  -37.5532 C   0  0  0  0  0  0  0  0  0  0  0  0
  -18.6917  -24.4951  -36.7056 C   0  0  0  0  0  0  0  0  0  0  0  0
   -6.6301  -29.1530  -34.6801 C   0  0  0  0  0  0  0  0  0  0  0  0
  -14.3392  -25.4439  -36.7924 C   0  0  0  0  0  0  0  0  0  0  0  0
   -9.9125  -25.7636  -33.4409 C   0  0  0  0  0  0  0  0  0  0  0  0
   -7.9412  -28.9915  -35.3359 C   0  0  0  0  0  0  0  0  0  0  0  0
   -5.8073  -28.1935  -34.3203 N   0  0  0  0  0  0  0  0  0  0  0  0
   -6.1365  -30.3908  -34.3746 N   0  0  0  0  0  0  0  0  0  0  0  0
  -13.0514  -25.8006  -37.2145 N   0  0  0  0  0  0  0  0  0  0  0  0
  -15.1516  -24.8738  -37.7558 N   0  0  0  0  0  0  0  0  0  0  0  0
   -8.7788  -28.1419  -34.5513 O   0  0  0  0  0  0  0  0  0  0  0  0
  -14.6916  -25.6171  -35.1535 S   0  0  0  0  0  0  0  0  0  0  0  0
  -20.7250  -22.8483  -37.5165 Cl  0  0  0  0  0  0  0  0  0  0  0  0
  -19.7498  -25.2267  -35.5506 Cl  0  0  0  0  0  0  0  0  0  0  0  0
   -1.6852  -28.8129  -32.2490 H   0  0  0  0  0  0  0  0  0  0  0  0
   -2.0576  -31.2506  -32.3151 H   0  0  0  0  0  0  0  0  0  0  0  0
   -3.3789  -27.2423  -33.1642 H   0  0  0  0  0  0  0  0  0  0  0  0
   -4.1474  -32.1945  -33.2999 H   0  0  0  0  0  0  0  0  0  0  0  0
  -11.7604  -28.0046  -37.9574 H   0  0  0  0  0  0  0  0  0  0  0  0
  -16.2199  -22.9341  -39.2517 H   0  0  0  0  0  0  0  0  0  0  0  0
   -9.8640  -29.0363  -36.7676 H   0  0  0  0  0  0  0  0  0  0  0  0
  -18.5311  -22.1123  -39.1367 H   0  0  0  0  0  0  0  0  0  0  0  0
  -11.9498  -24.9033  -34.9757 H   0  0  0  0  0  0  0  0  0  0  0  0
  -17.0439  -25.7588  -36.1131 H   0  0  0  0  0  0  0  0  0  0  0  0
   -8.8165  -25.7779  -33.4240 H   0  0  0  0  0  0  0  0  0  0  0  0
  -10.2497  -24.7231  -33.3553 H   0  0  0  0  0  0  0  0  0  0  0  0
  -10.2826  -26.2927  -32.5538 H   0  0  0  0  0  0  0  0  0  0  0  0
   -7.8523  -28.5444  -36.3423 H   0  0  0  0  0  0  0  0  0  0  0  0
   -8.4606  -29.9577  -35.4653 H   0  0  0  0  0  0  0  0  0  0  0  0
   -6.5901  -31.2770  -34.5543 H   0  0  0  0  0  0  0  0  0  0  0  0
  -12.8750  -25.5510  -38.1953 H   0  0  0  0  0  0  0  0  0  0  0  0
  -14.6882  -24.6713  -38.6382 H   0  0  0  0  0  0  0  0  0  0  0  0
  1  2  2  0  0  0  0
  1  3  1  0  0  0  0
  2  4  1  0  0  0  0
  3 12  2  0  0  0  0
  4 13  2  0  0  0  0
  5  7  2  0  0  0  0
  5 14  1  0  0  0  0
  6  8  1  0  0  0  0
  6 15  2  0  0  0  0
  7 16  1  0  0  0  0
  8 17  2  0  0  0  0
  9 11  1  0  0  0  0
  9 14  2  0  0  0  0
 10 15  1  0  0  0  0
 10 18  2  0  0  0  0
 11 16  2  0  0  0  0
 11 21  1  0  0  0  0
 12 13  1  0  0  0  0
 12 23  1  0  0  0  0
 13 24  1  0  0  0  0
 14 25  1  0  0  0  0
 15 26  1  0  0  0  0
 16 27  1  0  0  0  0
 17 18  1  0  0  0  0
 17 29  1  0  0  0  0
 18 30  1  0  0  0  0
 19 22  1  0  0  0  0
 19 23  2  0  0  0  0
 19 24  1  0  0  0  0
 20 25  1  0  0  0  0
 20 26  1  0  0  0  0
 20 28  2  0  0  0  0
 22 27  1  0  0  0  0
  1 31  1  0  0  0  0
  2 32  1  0  0  0  0
  3 33  1  0  0  0  0
  4 34  1  0  0  0  0
  5 35  1  0  0  0  0
  6 36  1  0  0  0  0
  7 37  1  0  0  0  0
  8 38  1  0  0  0  0
  9 39  1  0  0  0  0
 10 40  1  0  0  0  0
 21 41  1  0  0  0  0
 21 42  1  0  0  0  0
 21 43  1  0  0  0  0
 22 44  1  0  0  0  0
 22 45  1  0  0  0  0
 24 46  1  0  0  0  0
 25 47  1  0  0  0  0
 26 48  1  0  0  0  0
M  END
> <Clean Energy>
84.5744

> <SourceTag>
Livi_174a

> <Activity_FLAP>
100

> <Activity_sEH>
0.7

> <Gold.Version>
5.2

> <Gold.Id.Protein>
6HGV|6HGV_protein|mol2

> <Gold.Goldscore.Fitness>
81.9710

> <Gold.Goldscore.Internal.Vdw>
-7.5893

> <Gold.Goldscore.Internal.Torsion>
-7.8117

> <Gold.Goldscore.External.Vdw>
60.5981

> <Gold.Goldscore.Internal.HBond>
0.0000

> <Gold.Goldscore.External.HBond>
2.5515

> <Gold.Goldscore.Internal.Correction>
-11.4982

> <Gold.Goldscore.Hbonds>
donor molecule, donor type, donor heavy atom, donor atom, acceptor molecule, acceptor atom, score
      L1  H    25    47       P1  1931  1.00
      L1  H    26    48       P1  1931  0.28

> <Gold.Goldscore.Internal.Vdw.Weighted>
-7.5893

> <Gold.Goldscore.Internal.Torsion.Weighted>
-7.8117

> <Gold.Goldscore.External.Vdw.Weighted>
83.3224

> <Gold.Goldscore.Internal.HBond.Weighted>
0.0000

> <Gold.Goldscore.External.HBond.Weighted>
2.5515

> <Gold.Goldscore.Internal.Correction.Weighted>
-11.4982

> <Gold.Protein.RotatedTorsions>
[ 3781 1176 1175 1172 ] final  139.80 input   60.00 | X-H torsion
[ 3847 1247 1246 1244 ] final  121.29 input   60.00 | X-H torsion
[ 4507 1931 1930 1928 ] final -176.77 input   60.00 | X-H torsion
[ 3677 1070 1069 1066 ] final  -87.39 input   60.00 | X-H torsion
[ 3525  925  924  922 ] final  -33.69 input   59.99 | X-H torsion
[ 4531 1957 1955 1953 ] final   -9.57 input   60.00 | X-H torsion

> <Gold.Protein.ActiveResidues>
 PHE267  PRO268  MET310  ASP335  TRP336  MET339  TYR343  THR360  PRO361  ILE363 
 PRO371  SER374  ILE375  ASN378  PHE381  TYR383  GLN384  PHE387  LEU408  LEU417 
 MET419  LEU428  TYR466  MET469  ASN472  ASP496  VAL498  LEU499  MET503  HIS524 
 TRP525 

> <Gold.Protein.RotatedAtoms>
   -3.7708  -29.5171  -29.9625 H   0  0  0  0  0  0  0  0  0  0  0  0  # atno 3525 bound_to 925 
  -11.9221  -23.8189  -31.3618 H   0  0  0  0  0  0  0  0  0  0  0  0  # atno 3677 bound_to 1070
   -9.5910  -36.8905  -32.4417 H   0  0  0  0  0  0  0  0  0  0  0  0  # atno 3781 bound_to 1176
  -14.3130  -28.2699  -37.7746 H   0  0  0  0  0  0  0  0  0  0  0  0  # atno 3847 bound_to 1247
  -12.9049  -23.8651  -40.2213 H   0  0  0  0  0  0  0  0  0  0  0  0  # atno 4507 bound_to 1931
   -2.7441  -32.3945  -36.7086 H   0  0  0  0  0  0  0  0  0  0  0  0  # atno 4531 bound_to 1957
  -10.8349  -37.3673  -33.3763 LP  0  0  0  0  0  0  0  0  0  0  0  0  # atno 5205 bound_to 1176
   -9.6880  -36.3752  -33.9821 LP  0  0  0  0  0  0  0  0  0  0  0  0  # atno 5206 bound_to 1176
  -15.6951  -28.7340  -37.0518 LP  0  0  0  0  0  0  0  0  0  0  0  0  # atno 5215 bound_to 1247
  -15.5625  -27.2319  -37.6785 LP  0  0  0  0  0  0  0  0  0  0  0  0  # atno 5216 bound_to 1247
  -12.6117  -24.6211  -38.8105 LP  0  0  0  0  0  0  0  0  0  0  0  0  # atno 5217 bound_to 1931
  -13.6793  -25.2530  -39.8723 LP  0  0  0  0  0  0  0  0  0  0  0  0  # atno 5218 bound_to 1931
  -11.2156  -22.4222  -30.9166 LP  0  0  0  0  0  0  0  0  0  0  0  0  # atno 5224 bound_to 1070
  -12.7165  -22.7867  -30.3863 LP  0  0  0  0  0  0  0  0  0  0  0  0  # atno 5225 bound_to 1070

$$$$
MSC-067|Lisa_paper2_min|sdf|13|dock1
  -GOLD-  10182017163D 1   1.00000     0.00000

 48 51  0  0  0  0  0  0  0  0  1 V2000
   -3.1671  -29.6176  -33.1470 C   0  0  0  0  0  0  0  0  0  0  0  0
   -3.4084  -30.9308  -33.5572 C   0  0  0  0  0  0  0  0  0  0  0  0
   -4.1136  -28.6084  -33.3644 C   0  0  0  0  0  0  0  0  0  0  0  0
   -4.6009  -31.2836  -34.1977 C   0  0  0  0  0  0  0  0  0  0  0  0
  -12.0777  -26.8058  -36.6985 C   0  0  0  0  0  0  0  0  0  0  0  0
  -17.4754  -23.3617  -38.7723 C   0  0  0  0  0  0  0  0  0  0  0  0
  -11.0220  -27.5323  -36.1480 C   0  0  0  0  0  0  0  0  0  0  0  0
  -18.8524  -23.2621  -38.9712 C   0  0  0  0  0  0  0  0  0  0  0  0
  -11.6336  -24.9955  -35.1614 C   0  0  0  0  0  0  0  0  0  0  0  0
  -17.8605  -24.4871  -36.6695 C   0  0  0  0  0  0  0  0  0  0  0  0
  -10.5778  -25.7220  -34.6108 C   0  0  0  0  0  0  0  0  0  0  0  0
   -5.3172  -28.9450  -34.0068 C   0  0  0  0  0  0  0  0  0  0  0  0
   -5.5289  -30.2624  -34.4037 C   0  0  0  0  0  0  0  0  0  0  0  0
  -12.3835  -25.5373  -36.2052 C   0  0  0  0  0  0  0  0  0  0  0  0
  -16.9795  -23.9743  -37.6215 C   0  0  0  0  0  0  0  0  0  0  0  0
  -10.2720  -26.9905  -35.1041 C   0  0  0  0  0  0  0  0  0  0  0  0
  -19.7334  -23.7750  -38.0192 C   0  0  0  0  0  0  0  0  0  0  0  0
  -19.2375  -24.3875  -36.8683 C   0  0  0  0  0  0  0  0  0  0  0  0
   -7.2473  -28.9678  -34.9198 C   0  0  0  0  0  0  0  0  0  0  0  0
  -14.8241  -25.0278  -36.7603 C   0  0  0  0  0  0  0  0  0  0  0  0
   -9.7855  -25.1267  -33.4940 C   0  0  0  0  0  0  0  0  0  0  0  0
   -8.5725  -28.6150  -35.4624 C   0  0  0  0  0  0  0  0  0  0  0  0
   -6.3952  -28.1556  -34.3355 N   0  0  0  0  0  0  0  0  0  0  0  0
   -6.7711  -30.2477  -34.9846 N   0  0  0  0  0  0  0  0  0  0  0  0
  -13.4396  -24.8110  -36.7562 N   0  0  0  0  0  0  0  0  0  0  0  0
  -15.5801  -24.0758  -37.4202 N   0  0  0  0  0  0  0  0  0  0  0  0
   -9.2402  -27.7164  -34.5761 O   0  0  0  0  0  0  0  0  0  0  0  0
  -15.4067  -26.3239  -35.8543 S   0  0  0  0  0  0  0  0  0  0  0  0
  -21.4281  -23.6179  -38.3217 Cl  0  0  0  0  0  0  0  0  0  0  0  0
  -20.2784  -25.0399  -35.6517 Cl  0  0  0  0  0  0  0  0  0  0  0  0
   -2.2307  -29.3745  -32.6511 H   0  0  0  0  0  0  0  0  0  0  0  0
   -2.6550  -31.6937  -33.3767 H   0  0  0  0  0  0  0  0  0  0  0  0
   -3.9165  -27.5914  -33.0409 H   0  0  0  0  0  0  0  0  0  0  0  0
   -4.7904  -32.3024  -34.5157 H   0  0  0  0  0  0  0  0  0  0  0  0
  -12.6554  -27.2380  -37.5117 H   0  0  0  0  0  0  0  0  0  0  0  0
  -16.7975  -22.9602  -39.5212 H   0  0  0  0  0  0  0  0  0  0  0  0
  -10.7890  -28.5198  -36.5370 H   0  0  0  0  0  0  0  0  0  0  0  0
  -19.2211  -22.7829  -39.8748 H   0  0  0  0  0  0  0  0  0  0  0  0
  -11.8708  -24.0064  -34.7757 H   0  0  0  0  0  0  0  0  0  0  0  0
  -17.4676  -24.9627  -35.7729 H   0  0  0  0  0  0  0  0  0  0  0  0
   -8.7725  -24.8823  -33.8346 H   0  0  0  0  0  0  0  0  0  0  0  0
  -10.2576  -24.2111  -33.1168 H   0  0  0  0  0  0  0  0  0  0  0  0
   -9.7115  -25.8198  -32.6467 H   0  0  0  0  0  0  0  0  0  0  0  0
   -8.5023  -28.1267  -36.4509 H   0  0  0  0  0  0  0  0  0  0  0  0
   -9.2149  -29.5038  -35.5951 H   0  0  0  0  0  0  0  0  0  0  0  0
   -7.2477  -31.0438  -35.3876 H   0  0  0  0  0  0  0  0  0  0  0  0
  -13.1765  -23.9359  -37.2256 H   0  0  0  0  0  0  0  0  0  0  0  0
  -15.0589  -23.2611  -37.7346 H   0  0  0  0  0  0  0  0  0  0  0  0
  1  2  2  0  0  0  0
  1  3  1  0  0  0  0
  2  4  1  0  0  0  0
  3 12  2  0  0  0  0
  4 13  2  0  0  0  0
  5  7  2  0  0  0  0
  5 14  1  0  0  0  0
  6  8  1  0  0  0  0
  6 15  2  0  0  0  0
  7 16  1  0  0  0  0
  8 17  2  0  0  0  0
  9 11  1  0  0  0  0
  9 14  2  0  0  0  0
 10 15  1  0  0  0  0
 10 18  2  0  0  0  0
 11 16  2  0  0  0  0
 11 21  1  0  0  0  0
 12 13  1  0  0  0  0
 12 23  1  0  0  0  0
 13 24  1  0  0  0  0
 14 25  1  0  0  0  0
 15 26  1  0  0  0  0
 16 27  1  0  0  0  0
 17 18  1  0  0  0  0
 17 29  1  0  0  0  0
 18 30  1  0  0  0  0
 19 22  1  0  0  0  0
 19 23  2  0  0  0  0
 19 24  1  0  0  0  0
 20 25  1  0  0  0  0
 20 26  1  0  0  0  0
 20 28  2  0  0  0  0
 22 27  1  0  0  0  0
  1 31  1  0  0  0  0
  2 32  1  0  0  0  0
  3 33  1  0  0  0  0
  4 34  1  0  0  0  0
  5 35  1  0  0  0  0
  6 36  1  0  0  0  0
  7 37  1  0  0  0  0
  8 38  1  0  0  0  0
  9 39  1  0  0  0  0
 10 40  1  0  0  0  0
 21 41  1  0  0  0  0
 21 42  1  0  0  0  0
 21 43  1  0  0  0  0
 22 44  1  0  0  0  0
 22 45  1  0  0  0  0
 24 46  1  0  0  0  0
 25 47  1  0  0  0  0
 26 48  1  0  0  0  0
M  END
> <Clean Energy>
84.5744

> <SourceTag>
Livi_174a

> <Activity_FLAP>
100

> <Activity_sEH>
0.7

> <Gold.Version>
5.2

> <Gold.Id.Protein>
6HGV|6HGV_protein|mol2

> <Gold.Goldscore.Fitness>
81.7118

> <Gold.Goldscore.Internal.Vdw>
-5.6727

> <Gold.Goldscore.Internal.Torsion>
-9.7679

> <Gold.Goldscore.External.Vdw>
61.9211

> <Gold.Goldscore.Internal.HBond>
0.0000

> <Gold.Goldscore.External.HBond>
0.0681

> <Gold.Goldscore.Internal.Correction>
-11.9427

> <Gold.Goldscore.Hbonds>
donor molecule, donor type, donor heavy atom, donor atom, acceptor molecule, acceptor atom, score
      L1  H    25    47       P1   854  0.01

> <Gold.Goldscore.Internal.Vdw.Weighted>
-5.6727

> <Gold.Goldscore.Internal.Torsion.Weighted>
-9.7679

> <Gold.Goldscore.External.Vdw.Weighted>
85.1415

> <Gold.Goldscore.Internal.HBond.Weighted>
0.0000

> <Gold.Goldscore.External.HBond.Weighted>
0.0681

> <Gold.Goldscore.Internal.Correction.Weighted>
-11.9427

> <Gold.Protein.RotatedTorsions>
[ 3781 1176 1175 1172 ] final -154.37 input   60.00 | X-H torsion
[ 3847 1247 1246 1244 ] final   75.32 input   60.00 | X-H torsion
[ 4507 1931 1930 1928 ] final  -37.40 input   60.00 | X-H torsion
[ 3677 1070 1069 1066 ] final  -75.99 input   60.00 | X-H torsion
[ 3525  925  924  922 ] final  -13.82 input   59.99 | X-H torsion
[ 4531 1957 1955 1953 ] final   -9.28 input   60.00 | X-H torsion

> <Gold.Protein.ActiveResidues>
 PHE267  PRO268  MET310  ASP335  TRP336  MET339  TYR343  THR360  PRO361  ILE363 
 PRO371  SER374  ILE375  ASN378  PHE381  TYR383  GLN384  PHE387  LEU408  LEU417 
 MET419  LEU428  TYR466  MET469  ASN472  ASP496  VAL498  LEU499  MET503  HIS524 
 TRP525 

> <Gold.Protein.RotatedAtoms>
   -3.7016  -29.5184  -30.2779 H   0  0  0  0  0  0  0  0  0  0  0  0  # atno 3525 bound_to 925 
  -12.0928  -23.8443  -31.2923 H   0  0  0  0  0  0  0  0  0  0  0  0  # atno 3677 bound_to 1070
   -9.2540  -36.3648  -33.2450 H   0  0  0  0  0  0  0  0  0  0  0  0  # atno 3781 bound_to 1176
  -14.6348  -28.8311  -37.4336 H   0  0  0  0  0  0  0  0  0  0  0  0  # atno 3847 bound_to 1247
  -13.5829  -25.3565  -39.5896 H   0  0  0  0  0  0  0  0  0  0  0  0  # atno 4507 bound_to 1931
   -2.7478  -32.3974  -36.7080 H   0  0  0  0  0  0  0  0  0  0  0  0  # atno 4531 bound_to 1957
  -10.3118  -37.3482  -32.4954 LP  0  0  0  0  0  0  0  0  0  0  0  0  # atno 5205 bound_to 1176
  -10.5505  -36.9237  -34.0541 LP  0  0  0  0  0  0  0  0  0  0  0  0  # atno 5206 bound_to 1176
  -16.0620  -28.1030  -37.1492 LP  0  0  0  0  0  0  0  0  0  0  0  0  # atno 5215 bound_to 1247
  -14.8716  -27.2978  -37.9245 LP  0  0  0  0  0  0  0  0  0  0  0  0  # atno 5216 bound_to 1247
  -13.1189  -24.0205  -40.3944 LP  0  0  0  0  0  0  0  0  0  0  0  0  # atno 5217 bound_to 1931
  -12.4892  -24.3517  -38.9246 LP  0  0  0  0  0  0  0  0  0  0  0  0  # atno 5218 bound_to 1931
  -11.1396  -22.5521  -31.0280 LP  0  0  0  0  0  0  0  0  0  0  0  0  # atno 5224 bound_to 1070
  -12.6207  -22.6312  -30.3449 LP  0  0  0  0  0  0  0  0  0  0  0  0  # atno 5225 bound_to 1070

$$$$
MSC-067|Lisa_paper2_min|sdf|13|dock3
  -GOLD-  10182017163D 1   1.00000     0.00000

 48 51  0  0  0  0  0  0  0  0  1 V2000
   -3.2788  -30.7824  -33.5349 C   0  0  0  0  0  0  0  0  0  0  0  0
   -3.6316  -31.9927  -34.1361 C   0  0  0  0  0  0  0  0  0  0  0  0
   -4.1249  -29.6685  -33.6048 C   0  0  0  0  0  0  0  0  0  0  0  0
   -4.8394  -32.1350  -34.8273 C   0  0  0  0  0  0  0  0  0  0  0  0
  -11.7411  -26.7162  -36.9307 C   0  0  0  0  0  0  0  0  0  0  0  0
  -16.8167  -22.9222  -39.0718 C   0  0  0  0  0  0  0  0  0  0  0  0
  -10.7330  -27.5261  -36.4081 C   0  0  0  0  0  0  0  0  0  0  0  0
  -18.1759  -22.7725  -39.3474 C   0  0  0  0  0  0  0  0  0  0  0  0
  -11.1226  -24.9559  -35.3958 C   0  0  0  0  0  0  0  0  0  0  0  0
  -17.3591  -24.1596  -37.0689 C   0  0  0  0  0  0  0  0  0  0  0  0
  -10.1144  -25.7658  -34.8732 C   0  0  0  0  0  0  0  0  0  0  0  0
   -5.3422  -29.7934  -34.2955 C   0  0  0  0  0  0  0  0  0  0  0  0
   -5.6662  -31.0126  -34.8842 C   0  0  0  0  0  0  0  0  0  0  0  0
  -11.9360  -25.4310  -36.4245 C   0  0  0  0  0  0  0  0  0  0  0  0
  -16.4084  -23.6157  -37.9325 C   0  0  0  0  0  0  0  0  0  0  0  0
   -9.9196  -27.0510  -35.3794 C   0  0  0  0  0  0  0  0  0  0  0  0
  -19.1266  -23.3164  -38.4837 C   0  0  0  0  0  0  0  0  0  0  0  0
  -18.7183  -24.0099  -37.3444 C   0  0  0  0  0  0  0  0  0  0  0  0
   -7.2493  -29.5019  -35.2108 C   0  0  0  0  0  0  0  0  0  0  0  0
  -14.3276  -24.8098  -37.0712 C   0  0  0  0  0  0  0  0  0  0  0  0
   -9.2530  -25.2411  -33.7723 C   0  0  0  0  0  0  0  0  0  0  0  0
   -8.5265  -28.9514  -35.7014 C   0  0  0  0  0  0  0  0  0  0  0  0
   -6.3374  -28.8674  -34.5087 N   0  0  0  0  0  0  0  0  0  0  0  0
   -6.8909  -30.7971  -35.4623 N   0  0  0  0  0  0  0  0  0  0  0  0
  -12.9445  -24.6212  -36.9476 N   0  0  0  0  0  0  0  0  0  0  0  0
  -15.0271  -23.7681  -37.6533 N   0  0  0  0  0  0  0  0  0  0  0  0
   -8.9357  -27.8583  -34.8788 O   0  0  0  0  0  0  0  0  0  0  0  0
  -14.9839  -26.1988  -36.3782 S   0  0  0  0  0  0  0  0  0  0  0  0
  -20.7949  -23.0943  -38.8783 Cl  0  0  0  0  0  0  0  0  0  0  0  0
  -19.8484  -24.7043  -36.2355 Cl  0  0  0  0  0  0  0  0  0  0  0  0
   -2.3334  -30.7030  -33.0041 H   0  0  0  0  0  0  0  0  0  0  0  0
   -2.9545  -32.8407  -34.0671 H   0  0  0  0  0  0  0  0  0  0  0  0
   -3.8417  -28.7329  -33.1333 H   0  0  0  0  0  0  0  0  0  0  0  0
   -5.1153  -33.0739  -35.2936 H   0  0  0  0  0  0  0  0  0  0  0  0
  -12.3690  -27.0969  -37.7323 H   0  0  0  0  0  0  0  0  0  0  0  0
  -16.0840  -22.4959  -39.7522 H   0  0  0  0  0  0  0  0  0  0  0  0
  -10.5864  -28.5262  -36.8071 H   0  0  0  0  0  0  0  0  0  0  0  0
  -18.4759  -22.2303  -40.2407 H   0  0  0  0  0  0  0  0  0  0  0  0
  -11.2733  -23.9539  -35.0001 H   0  0  0  0  0  0  0  0  0  0  0  0
  -17.0344  -24.6984  -36.1809 H   0  0  0  0  0  0  0  0  0  0  0  0
   -9.0636  -26.0260  -33.0307 H   0  0  0  0  0  0  0  0  0  0  0  0
   -8.2897  -24.8848  -34.1577 H   0  0  0  0  0  0  0  0  0  0  0  0
   -9.7286  -24.3908  -33.2674 H   0  0  0  0  0  0  0  0  0  0  0  0
   -8.4510  -28.5841  -36.7406 H   0  0  0  0  0  0  0  0  0  0  0  0
   -9.3329  -29.7062  -35.6919 H   0  0  0  0  0  0  0  0  0  0  0  0
   -7.4308  -31.4774  -35.9809 H   0  0  0  0  0  0  0  0  0  0  0  0
  -12.6411  -23.6989  -37.2832 H   0  0  0  0  0  0  0  0  0  0  0  0
  -14.4774  -22.9301  -37.8262 H   0  0  0  0  0  0  0  0  0  0  0  0
  1  2  2  0  0  0  0
  1  3  1  0  0  0  0
  2  4  1  0  0  0  0
  3 12  2  0  0  0  0
  4 13  2  0  0  0  0
  5  7  2  0  0  0  0
  5 14  1  0  0  0  0
  6  8  1  0  0  0  0
  6 15  2  0  0  0  0
  7 16  1  0  0  0  0
  8 17  2  0  0  0  0
  9 11  1  0  0  0  0
  9 14  2  0  0  0  0
 10 15  1  0  0  0  0
 10 18  2  0  0  0  0
 11 16  2  0  0  0  0
 11 21  1  0  0  0  0
 12 13  1  0  0  0  0
 12 23  1  0  0  0  0
 13 24  1  0  0  0  0
 14 25  1  0  0  0  0
 15 26  1  0  0  0  0
 16 27  1  0  0  0  0
 17 18  1  0  0  0  0
 17 29  1  0  0  0  0
 18 30  1  0  0  0  0
 19 22  1  0  0  0  0
 19 23  2  0  0  0  0
 19 24  1  0  0  0  0
 20 25  1  0  0  0  0
 20 26  1  0  0  0  0
 20 28  2  0  0  0  0
 22 27  1  0  0  0  0
  1 31  1  0  0  0  0
  2 32  1  0  0  0  0
  3 33  1  0  0  0  0
  4 34  1  0  0  0  0
  5 35  1  0  0  0  0
  6 36  1  0  0  0  0
  7 37  1  0  0  0  0
  8 38  1  0  0  0  0
  9 39  1  0  0  0  0
 10 40  1  0  0  0  0
 21 41  1  0  0  0  0
 21 42  1  0  0  0  0
 21 43  1  0  0  0  0
 22 44  1  0  0  0  0
 22 45  1  0  0  0  0
 24 46  1  0  0  0  0
 25 47  1  0  0  0  0
 26 48  1  0  0  0  0
M  END
> <Clean Energy>
84.5744

> <SourceTag>
Livi_174a

> <Activity_FLAP>
100

> <Activity_sEH>
0.7

> <Gold.Version>
5.2

> <Gold.Id.Protein>
6HGV|6HGV_protein|mol2

> <Gold.Goldscore.Fitness>
81.3642

> <Gold.Goldscore.Internal.Vdw>
-7.6981

> <Gold.Goldscore.Internal.Torsion>
-8.6334

> <Gold.Goldscore.External.Vdw>
62.5342

> <Gold.Goldscore.Internal.HBond>
0.0000

> <Gold.Goldscore.External.HBond>
0.2130

> <Gold.Goldscore.Internal.Correction>
-11.4982

> <Gold.Goldscore.Hbonds>
donor molecule, donor type, donor heavy atom, donor atom, acceptor molecule, acceptor atom, score
      P1  H  1247  3847       L1    28  0.01
      L1  H    25    47       P1   854  0.03

> <Gold.Goldscore.Internal.Vdw.Weighted>
-7.6981

> <Gold.Goldscore.Internal.Torsion.Weighted>
-8.6334

> <Gold.Goldscore.External.Vdw.Weighted>
85.9845

> <Gold.Goldscore.Internal.HBond.Weighted>
0.0000

> <Gold.Goldscore.External.HBond.Weighted>
0.2130

> <Gold.Goldscore.Internal.Correction.Weighted>
-11.4982

> <Gold.Protein.RotatedTorsions>
[ 3781 1176 1175 1172 ] final   26.90 input   60.00 | X-H torsion
[ 3847 1247 1246 1244 ] final -138.95 input   60.00 | X-H torsion
[ 4507 1931 1930 1928 ] final  150.81 input   60.00 | X-H torsion
[ 3677 1070 1069 1066 ] final -119.46 input   60.00 | X-H torsion
[ 3525  925  924  922 ] final  -20.05 input   59.99 | X-H torsion
[ 4531 1957 1955 1953 ] final   47.09 input   60.00 | X-H torsion

> <Gold.Protein.ActiveResidues>
 PHE267  PRO268  MET310  ASP335  TRP336  MET339  TYR343  THR360  PRO361  ILE363 
 PRO371  SER374  ILE375  ASN378  PHE381  TYR383  GLN384  PHE387  LEU408  LEU417 
 MET419  LEU428  TYR466  MET469  ASN472  ASP496  VAL498  LEU499  MET503  HIS524 
 TRP525 

> <Gold.Protein.RotatedAtoms>
   -3.7340  -29.5131  -30.1816 H   0  0  0  0  0  0  0  0  0  0  0  0  # atno 3525 bound_to 925 
  -11.4696  -23.5848  -31.4509 H   0  0  0  0  0  0  0  0  0  0  0  0  # atno 3677 bound_to 1070
  -10.8149  -37.3984  -33.2658 H   0  0  0  0  0  0  0  0  0  0  0  0  # atno 3781 bound_to 1176
  -15.2622  -27.1986  -37.8118 H   0  0  0  0  0  0  0  0  0  0  0  0  # atno 3847 bound_to 1247
  -12.6015  -23.7821  -39.8039 H   0  0  0  0  0  0  0  0  0  0  0  0  # atno 4507 bound_to 1931
   -3.0960  -33.2088  -36.6558 H   0  0  0  0  0  0  0  0  0  0  0  0  # atno 4531 bound_to 1957
   -9.7795  -36.4132  -34.0438 LP  0  0  0  0  0  0  0  0  0  0  0  0  # atno 5205 bound_to 1176
   -9.5107  -36.8178  -32.4847 LP  0  0  0  0  0  0  0  0  0  0  0  0  # atno 5206 bound_to 1176
  -14.3869  -28.5586  -37.6324 LP  0  0  0  0  0  0  0  0  0  0  0  0  # atno 5215 bound_to 1247
  -15.9148  -28.4861  -37.0605 LP  0  0  0  0  0  0  0  0  0  0  0  0  # atno 5216 bound_to 1247
  -12.9219  -25.0458  -38.8301 LP  0  0  0  0  0  0  0  0  0  0  0  0  # atno 5217 bound_to 1931
  -13.6746  -24.9119  -40.2730 LP  0  0  0  0  0  0  0  0  0  0  0  0  # atno 5218 bound_to 1931
  -11.5713  -22.1942  -30.6119 LP  0  0  0  0  0  0  0  0  0  0  0  0  # atno 5224 bound_to 1070
  -12.8166  -23.2505  -30.6012 LP  0  0  0  0  0  0  0  0  0  0  0  0  # atno 5225 bound_to 1070

$$$$
MSC-067|Lisa_paper2_min|sdf|13|dock4
  -GOLD-  10182017163D 1   1.00000     0.00000

 48 51  0  0  0  0  0  0  0  0  1 V2000
   -3.2036  -29.8728  -33.2986 C   0  0  0  0  0  0  0  0  0  0  0  0
   -3.4279  -31.1370  -33.8483 C   0  0  0  0  0  0  0  0  0  0  0  0
   -4.1572  -28.8541  -33.4191 C   0  0  0  0  0  0  0  0  0  0  0  0
   -4.6099  -31.4300  -34.5366 C   0  0  0  0  0  0  0  0  0  0  0  0
  -12.1105  -26.8598  -36.7074 C   0  0  0  0  0  0  0  0  0  0  0  0
  -17.6373  -23.5448  -38.5942 C   0  0  0  0  0  0  0  0  0  0  0  0
  -11.0278  -27.5743  -36.1948 C   0  0  0  0  0  0  0  0  0  0  0  0
  -19.0212  -23.4635  -38.7488 C   0  0  0  0  0  0  0  0  0  0  0  0
  -11.6804  -25.0786  -35.1328 C   0  0  0  0  0  0  0  0  0  0  0  0
  -17.9397  -24.5857  -36.4350 C   0  0  0  0  0  0  0  0  0  0  0  0
  -10.5976  -25.7931  -34.6202 C   0  0  0  0  0  0  0  0  0  0  0  0
   -5.3504  -29.1308  -34.1078 C   0  0  0  0  0  0  0  0  0  0  0  0
   -5.5452  -30.4004  -34.6444 C   0  0  0  0  0  0  0  0  0  0  0  0
  -12.4368  -25.6118  -36.1764 C   0  0  0  0  0  0  0  0  0  0  0  0
  -17.0966  -24.1059  -37.4373 C   0  0  0  0  0  0  0  0  0  0  0  0
  -10.2714  -27.0411  -35.1512 C   0  0  0  0  0  0  0  0  0  0  0  0
  -19.8642  -23.9433  -37.7465 C   0  0  0  0  0  0  0  0  0  0  0  0
  -19.3235  -24.5043  -36.5895 C   0  0  0  0  0  0  0  0  0  0  0  0
   -7.2702  -29.0728  -35.0409 C   0  0  0  0  0  0  0  0  0  0  0  0
  -14.9005  -25.1336  -36.6510 C   0  0  0  0  0  0  0  0  0  0  0  0
   -9.7988  -25.2072  -33.5031 C   0  0  0  0  0  0  0  0  0  0  0  0
   -8.5927  -28.6756  -35.5589 C   0  0  0  0  0  0  0  0  0  0  0  0
   -6.4323  -28.3200  -34.3639 N   0  0  0  0  0  0  0  0  0  0  0  0
   -6.7811  -30.3346  -35.2352 N   0  0  0  0  0  0  0  0  0  0  0  0
  -13.5197  -24.8974  -36.6894 N   0  0  0  0  0  0  0  0  0  0  0  0
  -15.6902  -24.1888  -37.2809 N   0  0  0  0  0  0  0  0  0  0  0  0
   -9.2131  -27.7550  -34.6607 O   0  0  0  0  0  0  0  0  0  0  0  0
  -15.4360  -26.4428  -35.7347 S   0  0  0  0  0  0  0  0  0  0  0  0
  -21.5697  -23.8112  -37.9958 Cl  0  0  0  0  0  0  0  0  0  0  0  0
  -20.3160  -25.1139  -35.3118 Cl  0  0  0  0  0  0  0  0  0  0  0  0
   -2.2750  -29.6757  -32.7686 H   0  0  0  0  0  0  0  0  0  0  0  0
   -2.6692  -31.9085  -33.7406 H   0  0  0  0  0  0  0  0  0  0  0  0
   -3.9734  -27.8755  -32.9875 H   0  0  0  0  0  0  0  0  0  0  0  0
   -4.7861  -32.4109  -34.9630 H   0  0  0  0  0  0  0  0  0  0  0  0
  -12.6929  -27.2851  -37.5207 H   0  0  0  0  0  0  0  0  0  0  0  0
  -16.9892  -23.1694  -39.3820 H   0  0  0  0  0  0  0  0  0  0  0  0
  -10.7789  -28.5459  -36.6131 H   0  0  0  0  0  0  0  0  0  0  0  0
  -19.4251  -23.0245  -39.6577 H   0  0  0  0  0  0  0  0  0  0  0  0
  -11.9335  -24.1054  -34.7177 H   0  0  0  0  0  0  0  0  0  0  0  0
  -17.5118  -25.0211  -35.5340 H   0  0  0  0  0  0  0  0  0  0  0  0
   -8.7331  -25.2012  -33.7601 H   0  0  0  0  0  0  0  0  0  0  0  0
  -10.1122  -24.1780  -33.2885 H   0  0  0  0  0  0  0  0  0  0  0  0
   -9.9316  -25.7807  -32.5771 H   0  0  0  0  0  0  0  0  0  0  0  0
   -8.5246  -28.1899  -36.5488 H   0  0  0  0  0  0  0  0  0  0  0  0
   -9.2670  -29.5422  -35.6790 H   0  0  0  0  0  0  0  0  0  0  0  0
   -7.2456  -31.0875  -35.7258 H   0  0  0  0  0  0  0  0  0  0  0  0
  -13.2838  -24.0161  -37.1617 H   0  0  0  0  0  0  0  0  0  0  0  0
  -15.1906  -23.3651  -37.6069 H   0  0  0  0  0  0  0  0  0  0  0  0
  1  2  2  0  0  0  0
  1  3  1  0  0  0  0
  2  4  1  0  0  0  0
  3 12  2  0  0  0  0
  4 13  2  0  0  0  0
  5  7  2  0  0  0  0
  5 14  1  0  0  0  0
  6  8  1  0  0  0  0
  6 15  2  0  0  0  0
  7 16  1  0  0  0  0
  8 17  2  0  0  0  0
  9 11  1  0  0  0  0
  9 14  2  0  0  0  0
 10 15  1  0  0  0  0
 10 18  2  0  0  0  0
 11 16  2  0  0  0  0
 11 21  1  0  0  0  0
 12 13  1  0  0  0  0
 12 23  1  0  0  0  0
 13 24  1  0  0  0  0
 14 25  1  0  0  0  0
 15 26  1  0  0  0  0
 16 27  1  0  0  0  0
 17 18  1  0  0  0  0
 17 29  1  0  0  0  0
 18 30  1  0  0  0  0
 19 22  1  0  0  0  0
 19 23  2  0  0  0  0
 19 24  1  0  0  0  0
 20 25  1  0  0  0  0
 20 26  1  0  0  0  0
 20 28  2  0  0  0  0
 22 27  1  0  0  0  0
  1 31  1  0  0  0  0
  2 32  1  0  0  0  0
  3 33  1  0  0  0  0
  4 34  1  0  0  0  0
  5 35  1  0  0  0  0
  6 36  1  0  0  0  0
  7 37  1  0  0  0  0
  8 38  1  0  0  0  0
  9 39  1  0  0  0  0
 10 40  1  0  0  0  0
 21 41  1  0  0  0  0
 21 42  1  0  0  0  0
 21 43  1  0  0  0  0
 22 44  1  0  0  0  0
 22 45  1  0  0  0  0
 24 46  1  0  0  0  0
 25 47  1  0  0  0  0
 26 48  1  0  0  0  0
M  END
> <Clean Energy>
84.5744

> <SourceTag>
Livi_174a

> <Activity_FLAP>
100

> <Activity_sEH>
0.7

> <Gold.Version>
5.2

> <Gold.Id.Protein>
6HGV|6HGV_protein|mol2

> <Gold.Goldscore.Fitness>
81.3046

> <Gold.Goldscore.Internal.Vdw>
-6.2721

> <Gold.Goldscore.Internal.Torsion>
-9.8154

> <Gold.Goldscore.External.Vdw>
62.4145

> <Gold.Goldscore.Internal.HBond>
0.0000

> <Gold.Goldscore.External.HBond>
0.0740

> <Gold.Goldscore.Internal.Correction>
-11.4982

> <Gold.Goldscore.Hbonds>
donor molecule, donor type, donor heavy atom, donor atom, acceptor molecule, acceptor atom, score
      L1  H    25    47       P1   854  0.01

> <Gold.Goldscore.Internal.Vdw.Weighted>
-6.2721

> <Gold.Goldscore.Internal.Torsion.Weighted>
-9.8154

> <Gold.Goldscore.External.Vdw.Weighted>
85.8199

> <Gold.Goldscore.Internal.HBond.Weighted>
0.0000

> <Gold.Goldscore.External.HBond.Weighted>
0.0740

> <Gold.Goldscore.Internal.Correction.Weighted>
-11.4982

> <Gold.Protein.RotatedTorsions>
[ 3781 1176 1175 1172 ] final  135.62 input   60.00 | X-H torsion
[ 3847 1247 1246 1244 ] final   71.41 input   60.00 | X-H torsion
[ 4507 1931 1930 1928 ] final  -36.15 input   60.00 | X-H torsion
[ 3677 1070 1069 1066 ] final  -96.84 input   60.00 | X-H torsion
[ 3525  925  924  922 ] final  -11.42 input   59.99 | X-H torsion
[ 4531 1957 1955 1953 ] final  -31.79 input   60.00 | X-H torsion

> <Gold.Protein.ActiveResidues>
 PHE267  PRO268  MET310  ASP335  TRP336  MET339  TYR343  THR360  PRO361  ILE363 
 PRO371  SER374  ILE375  ASN378  PHE381  TYR383  GLN384  PHE387  LEU408  LEU417 
 MET419  LEU428  TYR466  MET469  ASN472  ASP496  VAL498  LEU499  MET503  HIS524 
 TRP525 

> <Gold.Protein.RotatedAtoms>
   -3.6866  -29.5217  -30.3141 H   0  0  0  0  0  0  0  0  0  0  0  0  # atno 3525 bound_to 925 
  -11.7812  -23.7737  -31.4053 H   0  0  0  0  0  0  0  0  0  0  0  0  # atno 3677 bound_to 1070
   -9.6402  -36.9320  -32.4185 H   0  0  0  0  0  0  0  0  0  0  0  0  # atno 3781 bound_to 1176
  -14.6825  -28.8607  -37.4035 H   0  0  0  0  0  0  0  0  0  0  0  0  # atno 3847 bound_to 1247
  -13.5749  -25.3604  -39.5711 H   0  0  0  0  0  0  0  0  0  0  0  0  # atno 4507 bound_to 1931
   -2.4277  -32.2308  -36.7660 H   0  0  0  0  0  0  0  0  0  0  0  0  # atno 4531 bound_to 1957
  -10.8369  -37.3443  -33.4412 LP  0  0  0  0  0  0  0  0  0  0  0  0  # atno 5205 bound_to 1176
   -9.6364  -36.3564  -33.9406 LP  0  0  0  0  0  0  0  0  0  0  0  0  # atno 5206 bound_to 1176
  -16.0695  -28.0425  -37.1694 LP  0  0  0  0  0  0  0  0  0  0  0  0  # atno 5215 bound_to 1247
  -14.8160  -27.3284  -37.9346 LP  0  0  0  0  0  0  0  0  0  0  0  0  # atno 5216 bound_to 1247
  -13.1328  -24.0334  -40.4026 LP  0  0  0  0  0  0  0  0  0  0  0  0  # atno 5217 bound_to 1931
  -12.4834  -24.3348  -38.9349 LP  0  0  0  0  0  0  0  0  0  0  0  0  # atno 5218 bound_to 1931
  -11.3009  -22.3319  -30.8233 LP  0  0  0  0  0  0  0  0  0  0  0  0  # atno 5224 bound_to 1070
  -12.7731  -22.9225  -30.4358 LP  0  0  0  0  0  0  0  0  0  0  0  0  # atno 5225 bound_to 1070

$$$$
MSC-067|Lisa_paper2_min|sdf|13|dock5
  -GOLD-  10182017173D 1   1.00000     0.00000

 48 51  0  0  0  0  0  0  0  0  1 V2000
   -2.8912  -29.7144  -33.0538 C   0  0  0  0  0  0  0  0  0  0  0  0
   -3.1190  -31.0307  -33.4618 C   0  0  0  0  0  0  0  0  0  0  0  0
   -3.8520  -28.7173  -33.2644 C   0  0  0  0  0  0  0  0  0  0  0  0
   -4.3117  -31.3988  -34.0932 C   0  0  0  0  0  0  0  0  0  0  0  0
  -11.8854  -27.1190  -36.5855 C   0  0  0  0  0  0  0  0  0  0  0  0
  -17.6998  -24.6967  -36.3854 C   0  0  0  0  0  0  0  0  0  0  0  0
  -10.7888  -27.7696  -36.0201 C   0  0  0  0  0  0  0  0  0  0  0  0
  -19.0879  -24.6251  -36.5038 C   0  0  0  0  0  0  0  0  0  0  0  0
  -11.4139  -25.1625  -35.2489 C   0  0  0  0  0  0  0  0  0  0  0  0
  -17.4714  -24.1328  -38.7235 C   0  0  0  0  0  0  0  0  0  0  0  0
  -10.3173  -25.8131  -34.6834 C   0  0  0  0  0  0  0  0  0  0  0  0
   -5.0560  -29.0693  -33.8977 C   0  0  0  0  0  0  0  0  0  0  0  0
   -5.2540  -30.3895  -34.2926 C   0  0  0  0  0  0  0  0  0  0  0  0
  -12.1979  -25.8154  -36.2000 C   0  0  0  0  0  0  0  0  0  0  0  0
  -16.8916  -24.4505  -37.4953 C   0  0  0  0  0  0  0  0  0  0  0  0
  -10.0047  -27.1167  -35.0690 C   0  0  0  0  0  0  0  0  0  0  0  0
  -19.6675  -24.3074  -37.7320 C   0  0  0  0  0  0  0  0  0  0  0  0
  -18.8593  -24.0613  -38.8420 C   0  0  0  0  0  0  0  0  0  0  0  0
   -6.9925  -29.1169  -34.7962 C   0  0  0  0  0  0  0  0  0  0  0  0
  -14.6743  -25.3845  -36.6536 C   0  0  0  0  0  0  0  0  0  0  0  0
   -9.4889  -25.0991  -33.6668 C   0  0  0  0  0  0  0  0  0  0  0  0
   -8.3260  -28.7811  -35.3290 C   0  0  0  0  0  0  0  0  0  0  0  0
   -6.1463  -28.2938  -34.2185 N   0  0  0  0  0  0  0  0  0  0  0  0
   -6.5006  -30.3907  -34.8642 N   0  0  0  0  0  0  0  0  0  0  0  0
  -13.2948  -25.1650  -36.7659 N   0  0  0  0  0  0  0  0  0  0  0  0
  -15.4812  -24.5228  -37.3743 N   0  0  0  0  0  0  0  0  0  0  0  0
   -8.9332  -27.7693  -34.5248 O   0  0  0  0  0  0  0  0  0  0  0  0
  -15.1838  -26.5615  -35.5602 S   0  0  0  0  0  0  0  0  0  0  0  0
  -21.3928  -24.2373  -37.8152 Cl  0  0  0  0  0  0  0  0  0  0  0  0
  -19.5183  -23.6652  -40.3905 Cl  0  0  0  0  0  0  0  0  0  0  0  0
   -1.9543  -29.4593  -32.5650 H   0  0  0  0  0  0  0  0  0  0  0  0
   -2.3547  -31.7840  -33.2866 H   0  0  0  0  0  0  0  0  0  0  0  0
   -3.6653  -27.6978  -32.9427 H   0  0  0  0  0  0  0  0  0  0  0  0
   -4.4907  -32.4201  -34.4095 H   0  0  0  0  0  0  0  0  0  0  0  0
  -12.4894  -27.6376  -37.3258 H   0  0  0  0  0  0  0  0  0  0  0  0
  -17.2582  -24.9435  -35.4233 H   0  0  0  0  0  0  0  0  0  0  0  0
  -10.5508  -28.7851  -36.3250 H   0  0  0  0  0  0  0  0  0  0  0  0
  -19.7022  -24.8185  -35.6279 H   0  0  0  0  0  0  0  0  0  0  0  0
  -11.6563  -24.1458  -34.9472 H   0  0  0  0  0  0  0  0  0  0  0  0
  -16.8356  -23.9431  -39.5862 H   0  0  0  0  0  0  0  0  0  0  0  0
   -8.4779  -24.9259  -34.0539 H   0  0  0  0  0  0  0  0  0  0  0  0
   -9.9324  -24.1312  -33.4025 H   0  0  0  0  0  0  0  0  0  0  0  0
   -9.4130  -25.6793  -32.7386 H   0  0  0  0  0  0  0  0  0  0  0  0
   -8.2784  -28.4061  -36.3671 H   0  0  0  0  0  0  0  0  0  0  0  0
   -8.9990  -29.6569  -35.3411 H   0  0  0  0  0  0  0  0  0  0  0  0
   -6.9701  -31.1929  -35.2633 H   0  0  0  0  0  0  0  0  0  0  0  0
  -13.0717  -24.3533  -37.3547 H   0  0  0  0  0  0  0  0  0  0  0  0
  -14.9900  -23.7513  -37.8191 H   0  0  0  0  0  0  0  0  0  0  0  0
  1  2  2  0  0  0  0
  1  3  1  0  0  0  0
  2  4  1  0  0  0  0
  3 12  2  0  0  0  0
  4 13  2  0  0  0  0
  5  7  2  0  0  0  0
  5 14  1  0  0  0  0
  6  8  1  0  0  0  0
  6 15  2  0  0  0  0
  7 16  1  0  0  0  0
  8 17  2  0  0  0  0
  9 11  1  0  0  0  0
  9 14  2  0  0  0  0
 10 15  1  0  0  0  0
 10 18  2  0  0  0  0
 11 16  2  0  0  0  0
 11 21  1  0  0  0  0
 12 13  1  0  0  0  0
 12 23  1  0  0  0  0
 13 24  1  0  0  0  0
 14 25  1  0  0  0  0
 15 26  1  0  0  0  0
 16 27  1  0  0  0  0
 17 18  1  0  0  0  0
 17 29  1  0  0  0  0
 18 30  1  0  0  0  0
 19 22  1  0  0  0  0
 19 23  2  0  0  0  0
 19 24  1  0  0  0  0
 20 25  1  0  0  0  0
 20 26  1  0  0  0  0
 20 28  2  0  0  0  0
 22 27  1  0  0  0  0
  1 31  1  0  0  0  0
  2 32  1  0  0  0  0
  3 33  1  0  0  0  0
  4 34  1  0  0  0  0
  5 35  1  0  0  0  0
  6 36  1  0  0  0  0
  7 37  1  0  0  0  0
  8 38  1  0  0  0  0
  9 39  1  0  0  0  0
 10 40  1  0  0  0  0
 21 41  1  0  0  0  0
 21 42  1  0  0  0  0
 21 43  1  0  0  0  0
 22 44  1  0  0  0  0
 22 45  1  0  0  0  0
 24 46  1  0  0  0  0
 25 47  1  0  0  0  0
 26 48  1  0  0  0  0
M  END
> <Clean Energy>
84.5744

> <SourceTag>
Livi_174a

> <Activity_FLAP>
100

> <Activity_sEH>
0.7

> <Gold.Version>
5.2

> <Gold.Id.Protein>
6HGV|6HGV_protein|mol2

> <Gold.Goldscore.Fitness>
79.9638

> <Gold.Goldscore.Internal.Vdw>
-5.1633

> <Gold.Goldscore.Internal.Torsion>
-10.3890

> <Gold.Goldscore.External.Vdw>
61.1039

> <Gold.Goldscore.Internal.HBond>
0.0000

> <Gold.Goldscore.External.HBond>
0.0000

> <Gold.Goldscore.Internal.Correction>
-11.4982

> <Gold.Goldscore.Internal.Vdw.Weighted>
-5.1633

> <Gold.Goldscore.Internal.Torsion.Weighted>
-10.3890

> <Gold.Goldscore.External.Vdw.Weighted>
84.0179

> <Gold.Goldscore.Internal.HBond.Weighted>
0.0000

> <Gold.Goldscore.External.HBond.Weighted>
0.0000

> <Gold.Goldscore.Internal.Correction.Weighted>
-11.4982

> <Gold.Protein.RotatedTorsions>
[ 3781 1176 1175 1172 ] final    7.86 input   60.00 | X-H torsion
[ 3847 1247 1246 1244 ] final   46.41 input   60.00 | X-H torsion
[ 4507 1931 1930 1928 ] final  -48.71 input   60.00 | X-H torsion
[ 3677 1070 1069 1066 ] final -100.94 input   60.00 | X-H torsion
[ 3525  925  924  922 ] final  -18.83 input   59.99 | X-H torsion
[ 4531 1957 1955 1953 ] final  -15.35 input   60.00 | X-H torsion

> <Gold.Protein.ActiveResidues>
 PHE267  PRO268  MET310  ASP335  TRP336  MET339  TYR343  THR360  PRO361  ILE363 
 PRO371  SER374  ILE375  ASN378  PHE381  TYR383  GLN384  PHE387  LEU408  LEU417 
 MET419  LEU428  TYR466  MET469  ASN472  ASP496  VAL498  LEU499  MET503  HIS524 
 TRP525 

> <Gold.Protein.RotatedAtoms>
   -3.7284  -29.5138  -30.2009 H   0  0  0  0  0  0  0  0  0  0  0  0  # atno 3525 bound_to 925 
  -11.7214  -23.7476  -31.4198 H   0  0  0  0  0  0  0  0  0  0  0  0  # atno 3677 bound_to 1070
  -10.8226  -37.2943  -33.5573 H   0  0  0  0  0  0  0  0  0  0  0  0  # atno 3781 bound_to 1176
  -15.0337  -28.9606  -37.2275 H   0  0  0  0  0  0  0  0  0  0  0  0  # atno 3847 bound_to 1247
  -13.6436  -25.3042  -39.7557 H   0  0  0  0  0  0  0  0  0  0  0  0  # atno 4507 bound_to 1931
   -2.6682  -32.3401  -36.7221 H   0  0  0  0  0  0  0  0  0  0  0  0  # atno 4531 bound_to 1957
   -9.5468  -36.3289  -33.8542 LP  0  0  0  0  0  0  0  0  0  0  0  0  # atno 5205 bound_to 1176
   -9.7358  -37.0069  -32.3807 LP  0  0  0  0  0  0  0  0  0  0  0  0  # atno 5206 bound_to 1176
  -16.0205  -27.6708  -37.3309 LP  0  0  0  0  0  0  0  0  0  0  0  0  # atno 5215 bound_to 1247
  -14.5113  -27.5996  -37.9505 LP  0  0  0  0  0  0  0  0  0  0  0  0  # atno 5216 bound_to 1247
  -12.9935  -23.9171  -40.3046 LP  0  0  0  0  0  0  0  0  0  0  0  0  # atno 5217 bound_to 1931
  -12.5535  -24.5077  -38.8471 LP  0  0  0  0  0  0  0  0  0  0  0  0  # atno 5218 bound_to 1931
  -11.3434  -22.2984  -30.7833 LP  0  0  0  0  0  0  0  0  0  0  0  0  # atno 5224 bound_to 1070
  -12.7908  -22.9824  -30.4612 LP  0  0  0  0  0  0  0  0  0  0  0  0  # atno 5225 bound_to 1070

$$$$
MSC-067|Lisa_paper2_min|sdf|13|dock10
  -GOLD-  10182017173D 1   1.00000     0.00000

 48 51  0  0  0  0  0  0  0  0  1 V2000
   -3.2675  -30.3806  -33.4906 C   0  0  0  0  0  0  0  0  0  0  0  0
   -3.5264  -31.5711  -34.1737 C   0  0  0  0  0  0  0  0  0  0  0  0
   -4.1824  -29.3205  -33.5162 C   0  0  0  0  0  0  0  0  0  0  0  0
   -4.7057  -31.7464  -34.9054 C   0  0  0  0  0  0  0  0  0  0  0  0
  -12.0672  -26.9460  -36.7684 C   0  0  0  0  0  0  0  0  0  0  0  0
  -18.0285  -24.9963  -35.6804 C   0  0  0  0  0  0  0  0  0  0  0  0
  -10.8812  -27.5553  -36.3591 C   0  0  0  0  0  0  0  0  0  0  0  0
  -19.4227  -24.9955  -35.6356 C   0  0  0  0  0  0  0  0  0  0  0  0
  -11.7338  -25.1987  -35.1335 C   0  0  0  0  0  0  0  0  0  0  0  0
  -18.1017  -24.2312  -37.9708 C   0  0  0  0  0  0  0  0  0  0  0  0
  -10.5477  -25.8081  -34.7241 C   0  0  0  0  0  0  0  0  0  0  0  0
   -5.3723  -29.4791  -34.2467 C   0  0  0  0  0  0  0  0  0  0  0  0
   -5.6021  -30.6774  -34.9170 C   0  0  0  0  0  0  0  0  0  0  0  0
  -12.4935  -25.7676  -36.1557 C   0  0  0  0  0  0  0  0  0  0  0  0
  -17.3681  -24.6141  -36.8480 C   0  0  0  0  0  0  0  0  0  0  0  0
  -10.1214  -26.9865  -35.3369 C   0  0  0  0  0  0  0  0  0  0  0  0
  -20.1563  -24.6126  -36.7584 C   0  0  0  0  0  0  0  0  0  0  0  0
  -19.4958  -24.2305  -37.9261 C   0  0  0  0  0  0  0  0  0  0  0  0
   -7.2720  -29.2528  -35.1951 C   0  0  0  0  0  0  0  0  0  0  0  0
  -15.0242  -25.4554  -36.3044 C   0  0  0  0  0  0  0  0  0  0  0  0
   -9.7469  -25.1854  -33.6285 C   0  0  0  0  0  0  0  0  0  0  0  0
   -8.5703  -28.7550  -35.6866 C   0  0  0  0  0  0  0  0  0  0  0  0
   -6.4203  -28.6067  -34.4309 N   0  0  0  0  0  0  0  0  0  0  0  0
   -6.8242  -30.5044  -35.5147 N   0  0  0  0  0  0  0  0  0  0  0  0
  -13.6798  -25.1583  -36.5655 N   0  0  0  0  0  0  0  0  0  0  0  0
  -15.9513  -24.6144  -36.8928 N   0  0  0  0  0  0  0  0  0  0  0  0
   -8.9612  -27.5971  -34.9480 O   0  0  0  0  0  0  0  0  0  0  0  0
  -15.3436  -26.6944  -35.2075 S   0  0  0  0  0  0  0  0  0  0  0  0
  -21.8808  -24.6356  -36.6411 Cl  0  0  0  0  0  0  0  0  0  0  0  0
  -20.3492  -23.7480  -39.3502 Cl  0  0  0  0  0  0  0  0  0  0  0  0
   -2.3422  -30.2746  -32.9299 H   0  0  0  0  0  0  0  0  0  0  0  0
   -2.7974  -32.3770  -34.1374 H   0  0  0  0  0  0  0  0  0  0  0  0
   -3.9720  -28.4000  -32.9812 H   0  0  0  0  0  0  0  0  0  0  0  0
   -4.9087  -32.6700  -35.4353 H   0  0  0  0  0  0  0  0  0  0  0  0
  -12.6512  -27.3982  -37.5660 H   0  0  0  0  0  0  0  0  0  0  0  0
  -17.4664  -25.2949  -34.7992 H   0  0  0  0  0  0  0  0  0  0  0  0
  -10.5548  -28.4731  -36.8407 H   0  0  0  0  0  0  0  0  0  0  0  0
  -19.9207  -25.2948  -34.7167 H   0  0  0  0  0  0  0  0  0  0  0  0
  -12.0649  -24.2798  -34.6547 H   0  0  0  0  0  0  0  0  0  0  0  0
  -17.5807  -23.9354  -38.8794 H   0  0  0  0  0  0  0  0  0  0  0  0
   -8.6898  -25.1310  -33.9139 H   0  0  0  0  0  0  0  0  0  0  0  0
  -10.1011  -24.1714  -33.4053 H   0  0  0  0  0  0  0  0  0  0  0  0
   -9.8287  -25.7635  -32.6995 H   0  0  0  0  0  0  0  0  0  0  0  0
   -8.5339  -28.4789  -36.7557 H   0  0  0  0  0  0  0  0  0  0  0  0
   -9.3689  -29.5111  -35.5836 H   0  0  0  0  0  0  0  0  0  0  0  0
   -7.3062  -31.1840  -36.0884 H   0  0  0  0  0  0  0  0  0  0  0  0
  -13.5674  -24.3163  -37.1432 H   0  0  0  0  0  0  0  0  0  0  0  0
  -15.5542  -23.8030  -37.3599 H   0  0  0  0  0  0  0  0  0  0  0  0
  1  2  2  0  0  0  0
  1  3  1  0  0  0  0
  2  4  1  0  0  0  0
  3 12  2  0  0  0  0
  4 13  2  0  0  0  0
  5  7  2  0  0  0  0
  5 14  1  0  0  0  0
  6  8  1  0  0  0  0
  6 15  2  0  0  0  0
  7 16  1  0  0  0  0
  8 17  2  0  0  0  0
  9 11  1  0  0  0  0
  9 14  2  0  0  0  0
 10 15  1  0  0  0  0
 10 18  2  0  0  0  0
 11 16  2  0  0  0  0
 11 21  1  0  0  0  0
 12 13  1  0  0  0  0
 12 23  1  0  0  0  0
 13 24  1  0  0  0  0
 14 25  1  0  0  0  0
 15 26  1  0  0  0  0
 16 27  1  0  0  0  0
 17 18  1  0  0  0  0
 17 29  1  0  0  0  0
 18 30  1  0  0  0  0
 19 22  1  0  0  0  0
 19 23  2  0  0  0  0
 19 24  1  0  0  0  0
 20 25  1  0  0  0  0
 20 26  1  0  0  0  0
 20 28  2  0  0  0  0
 22 27  1  0  0  0  0
  1 31  1  0  0  0  0
  2 32  1  0  0  0  0
  3 33  1  0  0  0  0
  4 34  1  0  0  0  0
  5 35  1  0  0  0  0
  6 36  1  0  0  0  0
  7 37  1  0  0  0  0
  8 38  1  0  0  0  0
  9 39  1  0  0  0  0
 10 40  1  0  0  0  0
 21 41  1  0  0  0  0
 21 42  1  0  0  0  0
 21 43  1  0  0  0  0
 22 44  1  0  0  0  0
 22 45  1  0  0  0  0
 24 46  1  0  0  0  0
 25 47  1  0  0  0  0
 26 48  1  0  0  0  0
M  END
> <Clean Energy>
84.5744

> <SourceTag>
Livi_174a

> <Activity_FLAP>
100

> <Activity_sEH>
0.7

> <Gold.Version>
5.2

> <Gold.Id.Protein>
6HGV|6HGV_protein|mol2

> <Gold.Goldscore.Fitness>
79.9321

> <Gold.Goldscore.Internal.Vdw>
-11.1003

> <Gold.Goldscore.Internal.Torsion>
-9.6357

> <Gold.Goldscore.External.Vdw>
64.8508

> <Gold.Goldscore.Internal.HBond>
0.0000

> <Gold.Goldscore.External.HBond>
0.0000

> <Gold.Goldscore.Internal.Correction>
-11.4982

> <Gold.Goldscore.Internal.Vdw.Weighted>
-11.1003

> <Gold.Goldscore.Internal.Torsion.Weighted>
-9.6357

> <Gold.Goldscore.External.Vdw.Weighted>
89.1699

> <Gold.Goldscore.Internal.HBond.Weighted>
0.0000

> <Gold.Goldscore.External.HBond.Weighted>
0.0000

> <Gold.Goldscore.Internal.Correction.Weighted>
-11.4982

> <Gold.Protein.RotatedTorsions>
[ 3781 1176 1175 1172 ] final   65.71 input   60.00 | X-H torsion
[ 3847 1247 1246 1244 ] final   39.78 input   60.00 | X-H torsion
[ 4507 1931 1930 1928 ] final  -24.58 input   60.00 | X-H torsion
[ 3677 1070 1069 1066 ] final  -62.27 input   60.00 | X-H torsion
[ 3525  925  924  922 ] final    2.82 input   59.99 | X-H torsion
[ 4531 1957 1955 1953 ] final  -42.43 input   60.00 | X-H torsion

> <Gold.Protein.ActiveResidues>
 PHE267  PRO268  MET310  ASP335  TRP336  MET339  TYR343  THR360  PRO361  ILE363 
 PRO371  SER374  ILE375  ASN378  PHE381  TYR383  GLN384  PHE387  LEU408  LEU417 
 MET419  LEU428  TYR466  MET469  ASN472  ASP496  VAL498  LEU499  MET503  HIS524 
 TRP525 

> <Gold.Protein.RotatedAtoms>
   -3.5708  -29.5540  -30.5125 H   0  0  0  0  0  0  0  0  0  0  0  0  # atno 3525 bound_to 925 
  -12.2901  -23.8313  -31.1879 H   0  0  0  0  0  0  0  0  0  0  0  0  # atno 3677 bound_to 1070
  -10.5464  -37.4291  -32.7055 H   0  0  0  0  0  0  0  0  0  0  0  0  # atno 3781 bound_to 1176
  -15.1346  -28.9594  -37.1883 H   0  0  0  0  0  0  0  0  0  0  0  0  # atno 3847 bound_to 1247
  -13.4898  -25.3792  -39.4036 H   0  0  0  0  0  0  0  0  0  0  0  0  # atno 4507 bound_to 1931
   -2.2599  -32.1991  -36.7973 H   0  0  0  0  0  0  0  0  0  0  0  0  # atno 4531 bound_to 1957
  -10.3108  -36.7263  -34.1541 LP  0  0  0  0  0  0  0  0  0  0  0  0  # atno 5205 bound_to 1176
   -9.2499  -36.4738  -32.9386 LP  0  0  0  0  0  0  0  0  0  0  0  0  # atno 5206 bound_to 1176
  -15.9803  -27.5825  -37.3804 LP  0  0  0  0  0  0  0  0  0  0  0  0  # atno 5215 bound_to 1247
  -14.4500  -27.6890  -37.9403 LP  0  0  0  0  0  0  0  0  0  0  0  0  # atno 5216 bound_to 1247
  -13.2585  -24.1637  -40.4606 LP  0  0  0  0  0  0  0  0  0  0  0  0  # atno 5217 bound_to 1931
  -12.4434  -24.1855  -39.0457 LP  0  0  0  0  0  0  0  0  0  0  0  0  # atno 5218 bound_to 1931
  -11.0907  -22.7320  -31.1545 LP  0  0  0  0  0  0  0  0  0  0  0  0  # atno 5224 bound_to 1070
  -12.4708  -22.4644  -30.3236 LP  0  0  0  0  0  0  0  0  0  0  0  0  # atno 5225 bound_to 1070

$$$$
MSC-067|Lisa_paper2_min|sdf|13|dock8
  -GOLD-  10182017173D 1   1.00000     0.00000

 48 51  0  0  0  0  0  0  0  0  1 V2000
  -10.4103  -34.3966  -35.0175 C   0  0  0  0  0  0  0  0  0  0  0  0
   -9.1298  -34.8437  -35.3511 C   0  0  0  0  0  0  0  0  0  0  0  0
  -10.6826  -33.0303  -34.8733 C   0  0  0  0  0  0  0  0  0  0  0  0
   -8.0768  -33.9453  -35.5527 C   0  0  0  0  0  0  0  0  0  0  0  0
  -11.3159  -27.5310  -37.0293 C   0  0  0  0  0  0  0  0  0  0  0  0
  -16.7273  -23.2621  -38.6007 C   0  0  0  0  0  0  0  0  0  0  0  0
  -10.2586  -28.1325  -36.3470 C   0  0  0  0  0  0  0  0  0  0  0  0
  -18.0391  -22.7906  -38.5506 C   0  0  0  0  0  0  0  0  0  0  0  0
  -11.3305  -25.7299  -35.4192 C   0  0  0  0  0  0  0  0  0  0  0  0
  -17.2393  -24.8705  -36.8722 C   0  0  0  0  0  0  0  0  0  0  0  0
  -10.2731  -26.3313  -34.7367 C   0  0  0  0  0  0  0  0  0  0  0  0
   -9.6364  -32.1135  -35.0720 C   0  0  0  0  0  0  0  0  0  0  0  0
   -8.3710  -32.5896  -35.4038 C   0  0  0  0  0  0  0  0  0  0  0  0
  -11.8519  -26.3296  -36.5654 C   0  0  0  0  0  0  0  0  0  0  0  0
  -16.3274  -24.3021  -37.7615 C   0  0  0  0  0  0  0  0  0  0  0  0
   -9.7371  -27.5328  -35.2006 C   0  0  0  0  0  0  0  0  0  0  0  0
  -18.9509  -23.3591  -37.6613 C   0  0  0  0  0  0  0  0  0  0  0  0
  -18.5511  -24.3990  -36.8220 C   0  0  0  0  0  0  0  0  0  0  0  0
   -8.4032  -30.3815  -35.2689 C   0  0  0  0  0  0  0  0  0  0  0  0
  -14.2030  -25.3711  -36.8444 C   0  0  0  0  0  0  0  0  0  0  0  0
   -9.7272  -25.6755  -33.5115 C   0  0  0  0  0  0  0  0  0  0  0  0
   -7.8738  -29.0058  -35.3180 C   0  0  0  0  0  0  0  0  0  0  0  0
   -9.6371  -30.7398  -34.9929 N   0  0  0  0  0  0  0  0  0  0  0  0
   -7.6027  -31.4601  -35.5236 N   0  0  0  0  0  0  0  0  0  0  0  0
  -12.9095  -25.7282  -37.2483 N   0  0  0  0  0  0  0  0  0  0  0  0
  -14.9944  -24.7813  -37.8133 N   0  0  0  0  0  0  0  0  0  0  0  0
   -8.7003  -28.1360  -34.5438 O   0  0  0  0  0  0  0  0  0  0  0  0
  -14.5866  -25.5683  -35.2152 S   0  0  0  0  0  0  0  0  0  0  0  0
  -20.5606  -22.7289  -37.6444 Cl  0  0  0  0  0  0  0  0  0  0  0  0
  -19.6339  -25.1423  -35.6977 Cl  0  0  0  0  0  0  0  0  0  0  0  0
  -11.2084  -35.1194  -34.8677 H   0  0  0  0  0  0  0  0  0  0  0  0
   -8.9469  -35.9105  -35.4550 H   0  0  0  0  0  0  0  0  0  0  0  0
  -11.6813  -32.6934  -34.6148 H   0  0  0  0  0  0  0  0  0  0  0  0
   -7.0827  -34.2904  -35.8127 H   0  0  0  0  0  0  0  0  0  0  0  0
  -11.7143  -28.0074  -37.9216 H   0  0  0  0  0  0  0  0  0  0  0  0
  -16.0250  -22.8132  -39.2985 H   0  0  0  0  0  0  0  0  0  0  0  0
   -9.8456  -29.0683  -36.7138 H   0  0  0  0  0  0  0  0  0  0  0  0
  -18.3336  -21.9805  -39.2131 H   0  0  0  0  0  0  0  0  0  0  0  0
  -11.7474  -24.7929  -35.0562 H   0  0  0  0  0  0  0  0  0  0  0  0
  -16.9210  -25.6807  -36.2190 H   0  0  0  0  0  0  0  0  0  0  0  0
  -10.2924  -25.9918  -32.6270 H   0  0  0  0  0  0  0  0  0  0  0  0
   -8.6711  -25.9318  -33.3613 H   0  0  0  0  0  0  0  0  0  0  0  0
   -9.7822  -24.5824  -33.5887 H   0  0  0  0  0  0  0  0  0  0  0  0
   -6.8454  -28.9399  -34.9197 H   0  0  0  0  0  0  0  0  0  0  0  0
   -7.8376  -28.6133  -36.3499 H   0  0  0  0  0  0  0  0  0  0  0  0
   -6.6193  -31.4330  -35.7595 H   0  0  0  0  0  0  0  0  0  0  0  0
  -12.7137  -25.4641  -38.2216 H   0  0  0  0  0  0  0  0  0  0  0  0
  -14.5138  -24.5674  -38.6837 H   0  0  0  0  0  0  0  0  0  0  0  0
  1  2  2  0  0  0  0
  1  3  1  0  0  0  0
  2  4  1  0  0  0  0
  3 12  2  0  0  0  0
  4 13  2  0  0  0  0
  5  7  2  0  0  0  0
  5 14  1  0  0  0  0
  6  8  1  0  0  0  0
  6 15  2  0  0  0  0
  7 16  1  0  0  0  0
  8 17  2  0  0  0  0
  9 11  1  0  0  0  0
  9 14  2  0  0  0  0
 10 15  1  0  0  0  0
 10 18  2  0  0  0  0
 11 16  2  0  0  0  0
 11 21  1  0  0  0  0
 12 13  1  0  0  0  0
 12 23  1  0  0  0  0
 13 24  1  0  0  0  0
 14 25  1  0  0  0  0
 15 26  1  0  0  0  0
 16 27  1  0  0  0  0
 17 18  1  0  0  0  0
 17 29  1  0  0  0  0
 18 30  1  0  0  0  0
 19 22  1  0  0  0  0
 19 23  2  0  0  0  0
 19 24  1  0  0  0  0
 20 25  1  0  0  0  0
 20 26  1  0  0  0  0
 20 28  2  0  0  0  0
 22 27  1  0  0  0  0
  1 31  1  0  0  0  0
  2 32  1  0  0  0  0
  3 33  1  0  0  0  0
  4 34  1  0  0  0  0
  5 35  1  0  0  0  0
  6 36  1  0  0  0  0
  7 37  1  0  0  0  0
  8 38  1  0  0  0  0
  9 39  1  0  0  0  0
 10 40  1  0  0  0  0
 21 41  1  0  0  0  0
 21 42  1  0  0  0  0
 21 43  1  0  0  0  0
 22 44  1  0  0  0  0
 22 45  1  0  0  0  0
 24 46  1  0  0  0  0
 25 47  1  0  0  0  0
 26 48  1  0  0  0  0
M  END
> <Clean Energy>
84.5744

> <SourceTag>
Livi_174a

> <Activity_FLAP>
100

> <Activity_sEH>
0.7

> <Gold.Version>
5.2

> <Gold.Id.Protein>
6HGV|6HGV_protein|mol2

> <Gold.Goldscore.Fitness>
76.5692

> <Gold.Goldscore.Internal.Vdw>
-6.6135

> <Gold.Goldscore.Internal.Torsion>
-9.1710

> <Gold.Goldscore.External.Vdw>
56.9432

> <Gold.Goldscore.Internal.HBond>
0.0000

> <Gold.Goldscore.External.HBond>
2.5586

> <Gold.Goldscore.Internal.Correction>
-11.4982

> <Gold.Goldscore.Hbonds>
donor molecule, donor type, donor heavy atom, donor atom, acceptor molecule, acceptor atom, score
      P1  H  1256  3854       L1    23  0.01
      L1  H    25    47       P1  1931  0.92
      L1  H    26    48       P1  1931  0.35

> <Gold.Goldscore.Internal.Vdw.Weighted>
-6.6135

> <Gold.Goldscore.Internal.Torsion.Weighted>
-9.1710

> <Gold.Goldscore.External.Vdw.Weighted>
78.2969

> <Gold.Goldscore.Internal.HBond.Weighted>
0.0000

> <Gold.Goldscore.External.HBond.Weighted>
2.5586

> <Gold.Goldscore.Internal.Correction.Weighted>
-11.4982

> <Gold.Protein.RotatedTorsions>
[ 3781 1176 1175 1172 ] final    8.05 input   60.00 | X-H torsion
[ 3847 1247 1246 1244 ] final  -84.83 input   60.00 | X-H torsion
[ 4507 1931 1930 1928 ] final -167.69 input   60.00 | X-H torsion
[ 3677 1070 1069 1066 ] final  -89.79 input   60.00 | X-H torsion
[ 3525  925  924  922 ] final  -75.85 input   59.99 | X-H torsion
[ 4531 1957 1955 1953 ] final    1.38 input   60.00 | X-H torsion

> <Gold.Protein.ActiveResidues>
 PHE267  PRO268  MET310  ASP335  TRP336  MET339  TYR343  THR360  PRO361  ILE363 
 PRO371  SER374  ILE375  ASN378  PHE381  TYR383  GLN384  PHE387  LEU408  LEU417 
 MET419  LEU428  TYR466  MET469  ASN472  ASP496  VAL498  LEU499  MET503  HIS524 
 TRP525 

> <Gold.Protein.RotatedAtoms>
   -3.5851  -29.6559  -29.3302 H   0  0  0  0  0  0  0  0  0  0  0  0  # atno 3525 bound_to 925 
  -11.8862  -23.8095  -31.3741 H   0  0  0  0  0  0  0  0  0  0  0  0  # atno 3677 bound_to 1070
  -10.8230  -37.2956  -33.5545 H   0  0  0  0  0  0  0  0  0  0  0  0  # atno 3781 bound_to 1176
  -15.9415  -27.5296  -37.4186 H   0  0  0  0  0  0  0  0  0  0  0  0  # atno 3847 bound_to 1247
  -13.0035  -23.9312  -40.3101 H   0  0  0  0  0  0  0  0  0  0  0  0  # atno 4507 bound_to 1931
   -2.8717  -32.5175  -36.6865 H   0  0  0  0  0  0  0  0  0  0  0  0  # atno 4531 bound_to 1957
   -9.5488  -36.3294  -33.8565 LP  0  0  0  0  0  0  0  0  0  0  0  0  # atno 5205 bound_to 1176
   -9.7334  -37.0051  -32.3813 LP  0  0  0  0  0  0  0  0  0  0  0  0  # atno 5206 bound_to 1176
  -14.4130  -27.7544  -37.9298 LP  0  0  0  0  0  0  0  0  0  0  0  0  # atno 5215 bound_to 1247
  -15.2046  -28.9570  -37.1591 LP  0  0  0  0  0  0  0  0  0  0  0  0  # atno 5216 bound_to 1247
  -12.5469  -24.4935  -38.8529 LP  0  0  0  0  0  0  0  0  0  0  0  0  # atno 5217 bound_to 1931
  -13.6448  -25.3140  -39.7405 LP  0  0  0  0  0  0  0  0  0  0  0  0  # atno 5218 bound_to 1931
  -11.2354  -22.3977  -30.8930 LP  0  0  0  0  0  0  0  0  0  0  0  0  # atno 5224 bound_to 1070
  -12.7329  -22.8207  -30.3976 LP  0  0  0  0  0  0  0  0  0  0  0  0  # atno 5225 bound_to 1070

$$$$
MSC-067|Lisa_paper2_min|sdf|13|dock9
  -GOLD-  10182017173D 1   1.00000     0.00000

 48 51  0  0  0  0  0  0  0  0  1 V2000
   -3.4287  -30.8204  -32.7690 C   0  0  0  0  0  0  0  0  0  0  0  0
   -3.6037  -31.9786  -33.5298 C   0  0  0  0  0  0  0  0  0  0  0  0
   -4.3224  -29.7470  -32.8729 C   0  0  0  0  0  0  0  0  0  0  0  0
   -4.6751  -32.1073  -34.4199 C   0  0  0  0  0  0  0  0  0  0  0  0
  -11.7222  -27.1272  -36.9820 C   0  0  0  0  0  0  0  0  0  0  0  0
  -17.7186  -25.1207  -35.6680 C   0  0  0  0  0  0  0  0  0  0  0  0
  -10.5159  -27.6964  -36.5743 C   0  0  0  0  0  0  0  0  0  0  0  0
  -19.1092  -25.1161  -35.5590 C   0  0  0  0  0  0  0  0  0  0  0  0
  -11.4896  -25.4204  -35.2880 C   0  0  0  0  0  0  0  0  0  0  0  0
  -17.9029  -24.6842  -38.0370 C   0  0  0  0  0  0  0  0  0  0  0  0
  -10.2832  -25.9896  -34.8801 C   0  0  0  0  0  0  0  0  0  0  0  0
   -5.4044  -29.8591  -33.7625 C   0  0  0  0  0  0  0  0  0  0  0  0
   -5.5524  -31.0260  -34.5070 C   0  0  0  0  0  0  0  0  0  0  0  0
  -12.2091  -25.9891  -36.3389 C   0  0  0  0  0  0  0  0  0  0  0  0
  -17.1155  -24.9047  -36.9070 C   0  0  0  0  0  0  0  0  0  0  0  0
   -9.7964  -27.1277  -35.5233 C   0  0  0  0  0  0  0  0  0  0  0  0
  -19.8966  -24.8956  -36.6890 C   0  0  0  0  0  0  0  0  0  0  0  0
  -19.2934  -24.6797  -37.9281 C   0  0  0  0  0  0  0  0  0  0  0  0
   -7.1569  -29.5675  -34.9470 C   0  0  0  0  0  0  0  0  0  0  0  0
  -14.7453  -25.6924  -36.3981 C   0  0  0  0  0  0  0  0  0  0  0  0
   -9.5261  -25.3677  -33.7535 C   0  0  0  0  0  0  0  0  0  0  0  0
   -8.3727  -29.0316  -35.5870 C   0  0  0  0  0  0  0  0  0  0  0  0
   -6.4102  -28.9649  -34.0490 N   0  0  0  0  0  0  0  0  0  0  0  0
   -6.6813  -30.8115  -35.2555 N   0  0  0  0  0  0  0  0  0  0  0  0
  -13.4157  -25.4200  -36.7471 N   0  0  0  0  0  0  0  0  0  0  0  0
  -15.7023  -24.9087  -37.0171 N   0  0  0  0  0  0  0  0  0  0  0  0
   -8.6154  -27.6986  -35.1364 O   0  0  0  0  0  0  0  0  0  0  0  0
  -15.0084  -26.8263  -35.1794 S   0  0  0  0  0  0  0  0  0  0  0  0
  -21.6137  -24.9050  -36.4897 Cl  0  0  0  0  0  0  0  0  0  0  0  0
  -20.2151  -24.4030  -39.3645 Cl  0  0  0  0  0  0  0  0  0  0  0  0
   -2.5864  -30.7504  -32.0853 H   0  0  0  0  0  0  0  0  0  0  0  0
   -2.8934  -32.7957  -33.4298 H   0  0  0  0  0  0  0  0  0  0  0  0
   -4.1778  -28.8520  -32.2765 H   0  0  0  0  0  0  0  0  0  0  0  0
   -4.8132  -33.0058  -35.0104 H   0  0  0  0  0  0  0  0  0  0  0  0
  -12.2745  -27.5789  -37.8022 H   0  0  0  0  0  0  0  0  0  0  0  0
  -17.1143  -25.2919  -34.7808 H   0  0  0  0  0  0  0  0  0  0  0  0
  -10.1423  -28.5828  -37.0796 H   0  0  0  0  0  0  0  0  0  0  0  0
  -19.5621  -25.2846  -34.5851 H   0  0  0  0  0  0  0  0  0  0  0  0
  -11.8679  -24.5329  -34.7855 H   0  0  0  0  0  0  0  0  0  0  0  0
  -17.4265  -24.5176  -39.0012 H   0  0  0  0  0  0  0  0  0  0  0  0
   -9.9284  -24.3731  -33.5282 H   0  0  0  0  0  0  0  0  0  0  0  0
   -9.5871  -25.9828  -32.8471 H   0  0  0  0  0  0  0  0  0  0  0  0
   -8.4615  -25.2665  -33.9991 H   0  0  0  0  0  0  0  0  0  0  0  0
   -8.2886  -29.0073  -36.6883 H   0  0  0  0  0  0  0  0  0  0  0  0
   -9.2652  -29.6389  -35.3527 H   0  0  0  0  0  0  0  0  0  0  0  0
   -7.0876  -31.4605  -35.9166 H   0  0  0  0  0  0  0  0  0  0  0  0
  -13.3338  -24.6342  -37.4037 H   0  0  0  0  0  0  0  0  0  0  0  0
  -15.3307  -24.1432  -37.5740 H   0  0  0  0  0  0  0  0  0  0  0  0
  1  2  2  0  0  0  0
  1  3  1  0  0  0  0
  2  4  1  0  0  0  0
  3 12  2  0  0  0  0
  4 13  2  0  0  0  0
  5  7  2  0  0  0  0
  5 14  1  0  0  0  0
  6  8  1  0  0  0  0
  6 15  2  0  0  0  0
  7 16  1  0  0  0  0
  8 17  2  0  0  0  0
  9 11  1  0  0  0  0
  9 14  2  0  0  0  0
 10 15  1  0  0  0  0
 10 18  2  0  0  0  0
 11 16  2  0  0  0  0
 11 21  1  0  0  0  0
 12 13  1  0  0  0  0
 12 23  1  0  0  0  0
 13 24  1  0  0  0  0
 14 25  1  0  0  0  0
 15 26  1  0  0  0  0
 16 27  1  0  0  0  0
 17 18  1  0  0  0  0
 17 29  1  0  0  0  0
 18 30  1  0  0  0  0
 19 22  1  0  0  0  0
 19 23  2  0  0  0  0
 19 24  1  0  0  0  0
 20 25  1  0  0  0  0
 20 26  1  0  0  0  0
 20 28  2  0  0  0  0
 22 27  1  0  0  0  0
  1 31  1  0  0  0  0
  2 32  1  0  0  0  0
  3 33  1  0  0  0  0
  4 34  1  0  0  0  0
  5 35  1  0  0  0  0
  6 36  1  0  0  0  0
  7 37  1  0  0  0  0
  8 38  1  0  0  0  0
  9 39  1  0  0  0  0
 10 40  1  0  0  0  0
 21 41  1  0  0  0  0
 21 42  1  0  0  0  0
 21 43  1  0  0  0  0
 22 44  1  0  0  0  0
 22 45  1  0  0  0  0
 24 46  1  0  0  0  0
 25 47  1  0  0  0  0
 26 48  1  0  0  0  0
M  END
> <Clean Energy>
84.5744

> <SourceTag>
Livi_174a

> <Activity_FLAP>
100

> <Activity_sEH>
0.7

> <Gold.Version>
5.2

> <Gold.Id.Protein>
6HGV|6HGV_protein|mol2

> <Gold.Goldscore.Fitness>
76.1999

> <Gold.Goldscore.Internal.Vdw>
-9.6363

> <Gold.Goldscore.Internal.Torsion>
-10.5282

> <Gold.Goldscore.External.Vdw>
61.7209

> <Gold.Goldscore.Internal.HBond>
0.0000

> <Gold.Goldscore.External.HBond>
0.0000

> <Gold.Goldscore.Internal.Correction>
-11.4982

> <Gold.Goldscore.Internal.Vdw.Weighted>
-9.6363

> <Gold.Goldscore.Internal.Torsion.Weighted>
-10.5282

> <Gold.Goldscore.External.Vdw.Weighted>
84.8662

> <Gold.Goldscore.Internal.HBond.Weighted>
0.0000

> <Gold.Goldscore.External.HBond.Weighted>
0.0000

> <Gold.Goldscore.Internal.Correction.Weighted>
-11.4982

> <Gold.Protein.RotatedTorsions>
[ 3781 1176 1175 1172 ] final  -95.04 input   60.00 | X-H torsion
[ 3847 1247 1246 1244 ] final   81.52 input   60.00 | X-H torsion
[ 4507 1931 1930 1928 ] final  -38.36 input   60.00 | X-H torsion
[ 3677 1070 1069 1066 ] final -111.26 input   60.00 | X-H torsion
[ 3525  925  924  922 ] final  -63.77 input   59.99 | X-H torsion
[ 4531 1957 1955 1953 ] final   -4.42 input   60.00 | X-H torsion

> <Gold.Protein.ActiveResidues>
 PHE267  PRO268  MET310  ASP335  TRP336  MET339  TYR343  THR360  PRO361  ILE363 
 PRO371  SER374  ILE375  ASN378  PHE381  TYR383  GLN384  PHE387  LEU408  LEU417 
 MET419  LEU428  TYR466  MET469  ASN472  ASP496  VAL498  LEU499  MET503  HIS524 
 TRP525 

> <Gold.Protein.RotatedAtoms>
   -3.6822  -29.5988  -29.4917 H   0  0  0  0  0  0  0  0  0  0  0  0  # atno 3525 bound_to 925 
  -11.5763  -23.6653  -31.4443 H   0  0  0  0  0  0  0  0  0  0  0  0  # atno 3677 bound_to 1070
   -9.7547  -36.4073  -34.0234 H   0  0  0  0  0  0  0  0  0  0  0  0  # atno 3781 bound_to 1176
  -14.5642  -28.7767  -37.4821 H   0  0  0  0  0  0  0  0  0  0  0  0  # atno 3847 bound_to 1247
  -13.5889  -25.3532  -39.6036 H   0  0  0  0  0  0  0  0  0  0  0  0  # atno 4507 bound_to 1931
   -2.8069  -32.4492  -36.6976 H   0  0  0  0  0  0  0  0  0  0  0  0  # atno 4531 bound_to 1957
   -9.5315  -36.8372  -32.4699 LP  0  0  0  0  0  0  0  0  0  0  0  0  # atno 5205 bound_to 1176
  -10.8265  -37.3919  -33.2956 LP  0  0  0  0  0  0  0  0  0  0  0  0  # atno 5206 bound_to 1176
  -16.0418  -28.1988  -37.1205 LP  0  0  0  0  0  0  0  0  0  0  0  0  # atno 5215 bound_to 1247
  -14.9628  -27.2566  -37.9044 LP  0  0  0  0  0  0  0  0  0  0  0  0  # atno 5216 bound_to 1247
  -13.1083  -24.0108  -40.3879 LP  0  0  0  0  0  0  0  0  0  0  0  0  # atno 5217 bound_to 1931
  -12.4938  -24.3646  -38.9169 LP  0  0  0  0  0  0  0  0  0  0  0  0  # atno 5218 bound_to 1931
  -11.4640  -22.2303  -30.6852 LP  0  0  0  0  0  0  0  0  0  0  0  0  # atno 5224 bound_to 1070
  -12.8163  -23.1332  -30.5346 LP  0  0  0  0  0  0  0  0  0  0  0  0  # atno 5225 bound_to 1070

$$$$
MSC-067|Lisa_paper2_min|sdf|13|dock6
  -GOLD-  10182017173D 1   1.00000     0.00000

 48 51  0  0  0  0  0  0  0  0  1 V2000
   -4.3428  -31.2329  -31.5652 C   0  0  0  0  0  0  0  0  0  0  0  0
   -3.5827  -31.4352  -32.7194 C   0  0  0  0  0  0  0  0  0  0  0  0
   -5.6319  -30.6899  -31.6363 C   0  0  0  0  0  0  0  0  0  0  0  0
   -4.0807  -31.1038  -33.9839 C   0  0  0  0  0  0  0  0  0  0  0  0
  -11.6182  -27.2270  -37.1461 C   0  0  0  0  0  0  0  0  0  0  0  0
  -17.6594  -25.1417  -35.7749 C   0  0  0  0  0  0  0  0  0  0  0  0
  -10.4119  -27.7688  -36.7026 C   0  0  0  0  0  0  0  0  0  0  0  0
  -19.0459  -25.0915  -35.6304 C   0  0  0  0  0  0  0  0  0  0  0  0
  -11.5492  -25.6071  -35.3551 C   0  0  0  0  0  0  0  0  0  0  0  0
  -17.8982  -24.8634  -38.1628 C   0  0  0  0  0  0  0  0  0  0  0  0
  -10.3428  -26.1488  -34.9115 C   0  0  0  0  0  0  0  0  0  0  0  0
   -6.1480  -30.3509  -32.8986 C   0  0  0  0  0  0  0  0  0  0  0  0
   -5.3665  -30.5644  -34.0307 C   0  0  0  0  0  0  0  0  0  0  0  0
  -12.1869  -26.1461  -36.4723 C   0  0  0  0  0  0  0  0  0  0  0  0
  -17.0856  -25.0276  -37.0411 C   0  0  0  0  0  0  0  0  0  0  0  0
   -9.7741  -27.2297  -35.5853 C   0  0  0  0  0  0  0  0  0  0  0  0
  -19.8584  -24.9272  -36.7522 C   0  0  0  0  0  0  0  0  0  0  0  0
  -19.2846  -24.8132  -38.0184 C   0  0  0  0  0  0  0  0  0  0  0  0
   -7.3341  -29.6953  -34.5487 C   0  0  0  0  0  0  0  0  0  0  0  0
  -14.7175  -25.8005  -36.5009 C   0  0  0  0  0  0  0  0  0  0  0  0
   -9.6739  -25.5593  -33.7139 C   0  0  0  0  0  0  0  0  0  0  0  0
   -8.4042  -29.1662  -35.4147 C   0  0  0  0  0  0  0  0  0  0  0  0
   -7.3666  -29.8107  -33.2400 N   0  0  0  0  0  0  0  0  0  0  0  0
   -6.1503  -30.1362  -35.0713 N   0  0  0  0  0  0  0  0  0  0  0  0
  -13.3936  -25.6045  -36.9163 N   0  0  0  0  0  0  0  0  0  0  0  0
  -15.6766  -25.0780  -37.1873 N   0  0  0  0  0  0  0  0  0  0  0  0
   -8.5919  -27.7730  -35.1641 O   0  0  0  0  0  0  0  0  0  0  0  0
  -14.9670  -26.7676  -35.1434 S   0  0  0  0  0  0  0  0  0  0  0  0
  -21.5690  -24.8758  -36.5081 Cl  0  0  0  0  0  0  0  0  0  0  0  0
  -20.2384  -24.6103  -39.4461 Cl  0  0  0  0  0  0  0  0  0  0  0  0
   -3.9284  -31.5011  -30.5966 H   0  0  0  0  0  0  0  0  0  0  0  0
   -2.5842  -31.8572  -32.6341 H   0  0  0  0  0  0  0  0  0  0  0  0
   -6.2145  -30.5376  -30.7334 H   0  0  0  0  0  0  0  0  0  0  0  0
   -3.4926  -31.2611  -34.8808 H   0  0  0  0  0  0  0  0  0  0  0  0
  -12.1063  -27.6552  -38.0180 H   0  0  0  0  0  0  0  0  0  0  0  0
  -17.0352  -25.2683  -34.8940 H   0  0  0  0  0  0  0  0  0  0  0  0
   -9.9742  -28.6107  -37.2322 H   0  0  0  0  0  0  0  0  0  0  0  0
  -19.4757  -25.1804  -34.6358 H   0  0  0  0  0  0  0  0  0  0  0  0
  -11.9914  -24.7641  -34.8286 H   0  0  0  0  0  0  0  0  0  0  0  0
  -17.4447  -24.7763  -39.1483 H   0  0  0  0  0  0  0  0  0  0  0  0
  -10.0133  -24.5286  -33.5575 H   0  0  0  0  0  0  0  0  0  0  0  0
   -9.8943  -26.1406  -32.8100 H   0  0  0  0  0  0  0  0  0  0  0  0
   -8.5830  -25.5538  -33.8314 H   0  0  0  0  0  0  0  0  0  0  0  0
   -8.1720  -29.2895  -36.4878 H   0  0  0  0  0  0  0  0  0  0  0  0
   -9.3679  -29.6772  -35.2403 H   0  0  0  0  0  0  0  0  0  0  0  0
   -5.8954  -30.1469  -36.0502 H   0  0  0  0  0  0  0  0  0  0  0  0
  -13.3154  -24.9085  -37.6679 H   0  0  0  0  0  0  0  0  0  0  0  0
  -15.3065  -24.3964  -37.8452 H   0  0  0  0  0  0  0  0  0  0  0  0
  1  2  2  0  0  0  0
  1  3  1  0  0  0  0
  2  4  1  0  0  0  0
  3 12  2  0  0  0  0
  4 13  2  0  0  0  0
  5  7  2  0  0  0  0
  5 14  1  0  0  0  0
  6  8  1  0  0  0  0
  6 15  2  0  0  0  0
  7 16  1  0  0  0  0
  8 17  2  0  0  0  0
  9 11  1  0  0  0  0
  9 14  2  0  0  0  0
 10 15  1  0  0  0  0
 10 18  2  0  0  0  0
 11 16  2  0  0  0  0
 11 21  1  0  0  0  0
 12 13  1  0  0  0  0
 12 23  1  0  0  0  0
 13 24  1  0  0  0  0
 14 25  1  0  0  0  0
 15 26  1  0  0  0  0
 16 27  1  0  0  0  0
 17 18  1  0  0  0  0
 17 29  1  0  0  0  0
 18 30  1  0  0  0  0
 19 22  1  0  0  0  0
 19 23  2  0  0  0  0
 19 24  1  0  0  0  0
 20 25  1  0  0  0  0
 20 26  1  0  0  0  0
 20 28  2  0  0  0  0
 22 27  1  0  0  0  0
  1 31  1  0  0  0  0
  2 32  1  0  0  0  0
  3 33  1  0  0  0  0
  4 34  1  0  0  0  0
  5 35  1  0  0  0  0
  6 36  1  0  0  0  0
  7 37  1  0  0  0  0
  8 38  1  0  0  0  0
  9 39  1  0  0  0  0
 10 40  1  0  0  0  0
 21 41  1  0  0  0  0
 21 42  1  0  0  0  0
 21 43  1  0  0  0  0
 22 44  1  0  0  0  0
 22 45  1  0  0  0  0
 24 46  1  0  0  0  0
 25 47  1  0  0  0  0
 26 48  1  0  0  0  0
M  END
> <Clean Energy>
84.5744

> <SourceTag>
Livi_174a

> <Activity_FLAP>
100

> <Activity_sEH>
0.7

> <Gold.Version>
5.2

> <Gold.Id.Protein>
6HGV|6HGV_protein|mol2

> <Gold.Goldscore.Fitness>
75.5638

> <Gold.Goldscore.Internal.Vdw>
-4.7058

> <Gold.Goldscore.Internal.Torsion>
-11.1857

> <Gold.Goldscore.External.Vdw>
57.9923

> <Gold.Goldscore.Internal.HBond>
0.0000

> <Gold.Goldscore.External.HBond>
0.2177

> <Gold.Goldscore.Internal.Correction>
-11.4982

> <Gold.Goldscore.Hbonds>
donor molecule, donor type, donor heavy atom, donor atom, acceptor molecule, acceptor atom, score
      L1  H    25    47       P1  1931  0.11

> <Gold.Goldscore.Internal.Vdw.Weighted>
-4.7058

> <Gold.Goldscore.Internal.Torsion.Weighted>
-11.1857

> <Gold.Goldscore.External.Vdw.Weighted>
79.7394

> <Gold.Goldscore.Internal.HBond.Weighted>
0.0000

> <Gold.Goldscore.External.HBond.Weighted>
0.2177

> <Gold.Goldscore.Internal.Correction.Weighted>
-11.4982

> <Gold.Protein.RotatedTorsions>
[ 3781 1176 1175 1172 ] final -125.82 input   60.00 | X-H torsion
[ 3847 1247 1246 1244 ] final   90.93 input   60.00 | X-H torsion
[ 4507 1931 1930 1928 ] final -170.78 input   60.00 | X-H torsion
[ 3677 1070 1069 1066 ] final  -78.53 input   60.00 | X-H torsion
[ 3525  925  924  922 ] final  -59.18 input   59.99 | X-H torsion
[ 4531 1957 1955 1953 ] final   33.57 input   60.00 | X-H torsion

> <Gold.Protein.ActiveResidues>
 PHE267  PRO268  MET310  ASP335  TRP336  MET339  TYR343  THR360  PRO361  ILE363 
 PRO371  SER374  ILE375  ASN378  PHE381  TYR383  GLN384  PHE387  LEU408  LEU417 
 MET419  LEU428  TYR466  MET469  ASN472  ASP496  VAL498  LEU499  MET503  HIS524 
 TRP525 

> <Gold.Protein.RotatedAtoms>
   -3.7104  -29.5804  -29.5587 H   0  0  0  0  0  0  0  0  0  0  0  0  # atno 3525 bound_to 925 
  -12.0550  -23.8415  -31.3093 H   0  0  0  0  0  0  0  0  0  0  0  0  # atno 3677 bound_to 1070
   -9.4144  -36.3110  -33.6744 H   0  0  0  0  0  0  0  0  0  0  0  0  # atno 3781 bound_to 1176
  -14.4715  -28.6791  -37.5558 H   0  0  0  0  0  0  0  0  0  0  0  0  # atno 3847 bound_to 1247
  -12.9696  -23.9068  -40.2817 H   0  0  0  0  0  0  0  0  0  0  0  0  # atno 4507 bound_to 1931
   -3.0877  -32.9885  -36.6536 H   0  0  0  0  0  0  0  0  0  0  0  0  # atno 4531 bound_to 1957
   -9.9196  -37.1352  -32.3655 LP  0  0  0  0  0  0  0  0  0  0  0  0  # atno 5205 bound_to 1176
  -10.7811  -37.1909  -33.7515 LP  0  0  0  0  0  0  0  0  0  0  0  0  # atno 5206 bound_to 1176
  -15.9922  -28.3410  -37.0855 LP  0  0  0  0  0  0  0  0  0  0  0  0  # atno 5215 bound_to 1247
  -15.1057  -27.2128  -37.8651 LP  0  0  0  0  0  0  0  0  0  0  0  0  # atno 5216 bound_to 1247
  -12.5676  -24.5368  -38.8362 LP  0  0  0  0  0  0  0  0  0  0  0  0  # atno 5217 bound_to 1931
  -13.6583  -25.2953  -39.7858 LP  0  0  0  0  0  0  0  0  0  0  0  0  # atno 5218 bound_to 1931
  -11.1538  -22.5214  -31.0035 LP  0  0  0  0  0  0  0  0  0  0  0  0  # atno 5224 bound_to 1070
  -12.6445  -22.6647  -30.3523 LP  0  0  0  0  0  0  0  0  0  0  0  0  # atno 5225 bound_to 1070

$$$$
